<?xml version="1.0" encoding="UTF-8"?>

<!-- generated on 03/02/21 15:53:28 by Eclipse SUMO netedit Version 1.8.0
<configuration xmlns:xsi="http://www.w3.org/2001/XMLSchema-instance" xsi:noNamespaceSchemaLocation="http://sumo.dlr.de/xsd/netconvertConfiguration.xsd">

    <output>
        <plain-output-prefix value=""/>
    </output>

    <processing>
        <offset.disable-normalization value="true"/>
    </processing>

    <junctions>
        <no-turnarounds value="true"/>
    </junctions>

    <netedit>
        <route-files value="C:\Users\james\iintersection\tests\intersections\hehe.rou.xml"/>
    </netedit>

    <report>
        <aggregate-warnings value="5"/>
    </report>

</configuration>
-->

<routes xmlns:xsi="http://www.w3.org/2001/XMLSchema-instance" xsi:noNamespaceSchemaLocation="http://sumo.dlr.de/xsd/routes_file.xsd">
    <flow id="flow_0" begin="0.00" from="gneE2" to="gneE0" end="3600.00" vehsPerHour="1800.00"/>
    <flow id="flow_1" begin="0.00" from="gneE6" to="gneE4" end="3600.00" vehsPerHour="1800.00"/>
</routes>
