<?xml version="1.0" encoding="UTF-8"?>

<!-- generated on 03/02/21 15:21:12 by Eclipse SUMO netedit Version 1.8.0
<configuration xmlns:xsi="http://www.w3.org/2001/XMLSchema-instance" xsi:noNamespaceSchemaLocation="http://sumo.dlr.de/xsd/netconvertConfiguration.xsd">

    <output>
        <plain-output-prefix value="C:\Users\james\iintersection\tests\intersections\hehe"/>
    </output>

    <processing>
        <offset.disable-normalization value="true"/>
    </processing>

    <junctions>
        <no-turnarounds value="true"/>
    </junctions>

    <report>
        <aggregate-warnings value="5"/>
    </report>

</configuration>
-->

<connections version="1.6" xmlns:xsi="http://www.w3.org/2001/XMLSchema-instance" xsi:noNamespaceSchemaLocation="http://sumo.dlr.de/xsd/connections_file.xsd">
    <connection from="gneE1" to="gneE5" fromLane="0" toLane="0"/>

    <connection from="gneE2" to="gneE0" fromLane="0" toLane="0"/>

    <connection from="gneE5" to="gneE0" fromLane="0" toLane="0"/>

    <connection from="gneE6" to="gneE4" fromLane="0" toLane="0"/>

</connections>
