<?xml version="1.0" encoding="UTF-8"?>

<!-- generated on 03/02/21 15:21:12 by Eclipse SUMO netedit Version 1.8.0
<configuration xmlns:xsi="http://www.w3.org/2001/XMLSchema-instance" xsi:noNamespaceSchemaLocation="http://sumo.dlr.de/xsd/netconvertConfiguration.xsd">

    <output>
        <plain-output-prefix value="C:\Users\james\iintersection\tests\intersections\hehe"/>
    </output>

    <processing>
        <offset.disable-normalization value="true"/>
    </processing>

    <junctions>
        <no-turnarounds value="true"/>
    </junctions>

    <report>
        <aggregate-warnings value="5"/>
    </report>

</configuration>
-->

<edges version="1.6" xmlns:xsi="http://www.w3.org/2001/XMLSchema-instance" xsi:noNamespaceSchemaLocation="http://sumo.dlr.de/xsd/edges_file.xsd">
    <edge id="gneE0" from="gneJ0" to="gneJ1" priority="-1" numLanes="1" speed="13.89" shape="-37.50,50.24 -14.30,58.21 -0.56,48.32 19.60,45.67 60.01,54.02"/>
    <edge id="gneE1" from="gneJ2" to="gneJ3" priority="-1" numLanes="1" speed="13.89"/>
    <edge id="gneE2" from="gneJ2" to="gneJ0" priority="-1" numLanes="1" speed="13.89"/>
    <edge id="gneE3" from="gneJ4" to="gneJ1" priority="-1" numLanes="1" speed="13.89"/>
    <edge id="gneE4" from="gneJ5" to="gneJ1" priority="-1" numLanes="1" speed="13.89"/>
    <edge id="gneE5" from="gneJ3" to="gneJ0" priority="-1" numLanes="1" speed="13.89"/>
    <edge id="gneE6" from="gneJ4" to="gneJ5" priority="-1" numLanes="1" speed="13.89"/>
</edges>
