<?xml version="1.0" encoding="UTF-8"?>

<!-- generated on Sun Feb 28 19:29:30 2021 by Eclipse SUMO netconvert Version 1.4.0
<configuration xmlns:xsi="http://www.w3.org/2001/XMLSchema-instance" xsi:noNamespaceSchemaLocation="http://sumo.dlr.de/xsd/netconvertConfiguration.xsd">

    <input>
        <sumo-net-file value="most.net.xml"/>
    </input>

    <output>
        <plain-output-prefix value="most"/>
    </output>

    <processing>
        <geometry.min-radius.fix.railways value="false"/>
        <geometry.max-grade.fix value="false"/>
        <offset.disable-normalization value="true"/>
        <lefthand value="false"/>
    </processing>

    <junctions>
        <no-turnarounds value="true"/>
        <junctions.corner-detail value="5"/>
        <junctions.limit-turn-speed value="1"/>
        <rectangular-lane-cut value="false"/>
    </junctions>

    <pedestrian>
        <walkingareas value="true"/>
    </pedestrian>

    <report>
        <aggregate-warnings value="5"/>
    </report>

</configuration>
-->

<connections version="1.3" xmlns:xsi="http://www.w3.org/2001/XMLSchema-instance" xsi:noNamespaceSchemaLocation="http://sumo.dlr.de/xsd/connections_file.xsd">
    <connection from="-152132" to="152538#0" fromLane="1" toLane="1"/>
    <connection from="-152132" to="152418" fromLane="1" toLane="1"/>
    <connection from="-152132" to="-152958" fromLane="1" toLane="2"/>

    <connection from="-152134" to="153273#0" fromLane="1" toLane="1"/>

    <connection from="-152135#0" to="152802" fromLane="1" toLane="1"/>
    <connection from="-152135#0" to="-152768" fromLane="1" toLane="1"/>

    <connection from="-152135#1" to="-152135#0" fromLane="1" toLane="1"/>

    <connection from="-152139" to="152318#4" fromLane="0" toLane="0"/>
    <connection from="-152139" to="152318#4" fromLane="1" toLane="1"/>

    <connection from="-152146" to="153421#2" fromLane="1" toLane="1"/>
    <connection from="-152146" to="-153421#1" fromLane="1" toLane="1"/>

    <connection from="-152147" to="-152148" fromLane="1" toLane="1"/>
    <connection from="-152147" to="152695" fromLane="1" toLane="1"/>

    <connection from="-152148" to="-152687" fromLane="1" toLane="1"/>
    <connection from="-152148" to="-153420#2" fromLane="1" toLane="2"/>
    <connection from="-152148" to="153420#3" fromLane="1" toLane="2"/>

    <connection from="-152149" to="-152540" fromLane="1" toLane="1"/>
    <connection from="-152149" to="-153482#0" fromLane="1" toLane="1"/>
    <connection from="-152149" to="153482#1" fromLane="1" toLane="1"/>

    <connection from="-152162" to="-152936" fromLane="1" toLane="1"/>
    <connection from="-152162" to="152871" fromLane="1" toLane="1"/>

    <connection from="-152163#0" to="152873#3" fromLane="1" toLane="1"/>
    <connection from="-152163#0" to="-152873#2" fromLane="1" toLane="1"/>

    <connection from="-152163#1" to="-152163#0" fromLane="1" toLane="1"/>

    <connection from="-152164" to="153467#0" fromLane="1" toLane="1"/>
    <connection from="-152164" to="-153464" fromLane="1" toLane="1"/>

    <connection from="-152165#0" to="153547" fromLane="1" toLane="1"/>

    <connection from="-152165#1" to="-152457#2" fromLane="1" toLane="1"/>
    <connection from="-152165#1" to="-152165#0" fromLane="1" toLane="1"/>

    <connection from="-152166" to="-152330#5" fromLane="1" toLane="1"/>
    <connection from="-152166" to="-152330#5" fromLane="2" toLane="2"/>

    <connection from="-152167" to="152944#0" fromLane="1" toLane="1"/>
    <connection from="-152167" to="152944#0" fromLane="2" toLane="2"/>

    <connection from="-152168#0" to="-152166" fromLane="1" toLane="1"/>
    <connection from="-152168#0" to="-152166" fromLane="2" toLane="2"/>

    <connection from="-152168#1" to="-152168#0" fromLane="1" toLane="1"/>
    <connection from="-152168#1" to="-152168#0" fromLane="2" toLane="2"/>

    <connection from="-152169" to="152610" fromLane="1" toLane="1"/>
    <connection from="-152169" to="-152605#2" fromLane="1" toLane="1"/>
    <connection from="-152169" to="-152605#2" fromLane="2" toLane="2"/>

    <connection from="-152170#0" to="-152224" fromLane="1" toLane="1"/>

    <connection from="-152170#1" to="-152170#0" fromLane="1" toLane="1"/>

    <connection from="-152172" to="152345#0" fromLane="1" toLane="1"/>
    <connection from="-152172" to="152578#1" fromLane="1" toLane="1"/>

    <connection from="-152176#0" to="-153383#0" fromLane="1" toLane="1"/>
    <connection from="-152176#0" to="153383#1" fromLane="1" toLane="2"/>

    <connection from="-152176#1" to="-152176#0" fromLane="1" toLane="1"/>

    <connection from="-152176#2" to="152355#0" fromLane="1" toLane="1"/>
    <connection from="-152176#2" to="-152176#1" fromLane="1" toLane="1"/>

    <connection from="-152177" to="152621" fromLane="1" toLane="1"/>
    <connection from="-152177" to="-152176#2" fromLane="1" toLane="1"/>

    <connection from="-152191"/>

    <connection from="-152206" to="152461" fromLane="0" toLane="0"/>

    <connection from="-152210" to="-152855" fromLane="0" toLane="0"/>
    <connection from="-152210" to="-152855" fromLane="1" toLane="1"/>

    <connection from="-152213" to="152557#1" fromLane="1" toLane="1"/>

    <connection from="-152215" to="-152566#1" fromLane="1" toLane="1"/>

    <connection from="-152218" to="153378#0" fromLane="1" toLane="1"/>

    <connection from="-152220" to="-152587#3" fromLane="1" toLane="1"/>

    <connection from="-152223" to="-152169" fromLane="1" toLane="1"/>
    <connection from="-152223" to="-152169" fromLane="2" toLane="2"/>

    <connection from="-152224" to="152587#0" fromLane="1" toLane="1"/>

    <connection from="-152226" to="-152290" fromLane="0" toLane="0"/>
    <connection from="-152226" to="152287" fromLane="0" toLane="0"/>

    <connection from="-152239" to="-152993#1" fromLane="1" toLane="1"/>
    <connection from="-152239" to="-152993#1" fromLane="2" toLane="2"/>

    <connection from="-152241" to="-153351" fromLane="0" toLane="1"/>
    <connection from="-152241" to="-153351" fromLane="1" toLane="2"/>

    <connection from="-152242" to="153352" fromLane="0" toLane="1"/>
    <connection from="-152242" to="152544" fromLane="0" toLane="1"/>

    <connection from="-152243" to="-153352" fromLane="0" toLane="1"/>

    <connection from="-152244" to="-152618#1" fromLane="1" toLane="1"/>
    <connection from="-152244" to="-152618#1" fromLane="2" toLane="2"/>

    <connection from="-152245" to="-153369#1" fromLane="1" toLane="1"/>
    <connection from="-152245" to="-153369#1" fromLane="2" toLane="2"/>

    <connection from="-152246" to="153369#0" fromLane="0" toLane="1"/>
    <connection from="-152246" to="153369#0" fromLane="1" toLane="2"/>

    <connection from="-152247" to="-153370#1" fromLane="1" toLane="1"/>
    <connection from="-152247" to="-153370#1" fromLane="2" toLane="2"/>

    <connection from="-152248" to="-153373" fromLane="1" toLane="1"/>
    <connection from="-152248" to="-153373" fromLane="2" toLane="2"/>

    <connection from="-152250" to="-153385#1" fromLane="1" toLane="1"/>
    <connection from="-152250" to="-153385#1" fromLane="2" toLane="2"/>

    <connection from="-152251" to="-153412#5" fromLane="0" toLane="1"/>
    <connection from="-152251" to="-153412#5" fromLane="1" toLane="2"/>

    <connection from="-152252" to="-152413#3" fromLane="1" toLane="1"/>
    <connection from="-152252" to="-152413#3" fromLane="2" toLane="2"/>

    <connection from="-152253" to="-153395" fromLane="1" toLane="1"/>
    <connection from="-152253" to="-153395" fromLane="2" toLane="2"/>

    <connection from="-152254" to="153423#0" fromLane="0" toLane="1"/>
    <connection from="-152254" to="153423#0" fromLane="1" toLane="2"/>

    <connection from="-152255#0" to="-153423#4" fromLane="1" toLane="1"/>
    <connection from="-152255#0" to="-153423#4" fromLane="2" toLane="2"/>

    <connection from="-152255#1" to="153042#1" fromLane="1" toLane="1"/>
    <connection from="-152255#1" to="-152255#0" fromLane="1" toLane="1"/>
    <connection from="-152255#1" to="-152255#0" fromLane="2" toLane="2"/>
    <connection from="-152255#1" to="-153042#0" fromLane="2" toLane="1"/>

    <connection from="-152256" to="153460" fromLane="1" toLane="1"/>
    <connection from="-152256" to="153460" fromLane="2" toLane="2"/>

    <connection from="-152257" to="-152927" fromLane="1" toLane="1"/>
    <connection from="-152257" to="-152927" fromLane="2" toLane="2"/>

    <connection from="-152270" to="-152418" fromLane="0" toLane="1"/>
    <connection from="-152270" to="-152418" fromLane="1" toLane="2"/>

    <connection from="-152283" to="152554" fromLane="0" toLane="1"/>
    <connection from="-152283" to="152554" fromLane="1" toLane="2"/>

    <connection from="-152284" to="152594" fromLane="0" toLane="1"/>

    <connection from="-152288" to="152325#0" fromLane="0" toLane="1"/>
    <connection from="-152288" to="152325#0" fromLane="1" toLane="2"/>

    <connection from="-152289" to="-152762" fromLane="0" toLane="1"/>

    <connection from="-152290" to="-152761" fromLane="0" toLane="0"/>

    <connection from="-152291" to="-152800" fromLane="0" toLane="0"/>

    <connection from="-152292" to="-152794" fromLane="0" toLane="0"/>

    <connection from="-152293" to="152794" fromLane="0" toLane="0"/>

    <connection from="-152298" to="-152873#3" fromLane="0" toLane="1"/>

    <connection from="-152299" to="152857" fromLane="0" toLane="1"/>

    <connection from="-152300" to="152891#0" fromLane="0" toLane="1"/>
    <connection from="-152300" to="152891#0" fromLane="1" toLane="2"/>

    <connection from="-152302" to="-153477#1" fromLane="0" toLane="1"/>
    <connection from="-152302" to="-153477#1" fromLane="1" toLane="2"/>

    <connection from="-152303" to="-153342" fromLane="0" toLane="1"/>
    <connection from="-152303" to="-153342" fromLane="1" toLane="2"/>

    <connection from="-152304" to="-153478" fromLane="0" toLane="1"/>
    <connection from="-152304" to="-153478" fromLane="1" toLane="2"/>

    <connection from="-152305" to="152960#5" fromLane="0" toLane="1"/>
    <connection from="-152305" to="-152831#2" fromLane="0" toLane="1"/>

    <connection from="-152307" to="-152565" fromLane="0" toLane="1"/>
    <connection from="-152307" to="-152565" fromLane="1" toLane="2"/>

    <connection from="-152308" to="152281" fromLane="0" toLane="0"/>
    <connection from="-152308" to="152281" fromLane="1" toLane="1"/>

    <connection from="-152309" to="152318#1" fromLane="0" toLane="0"/>

    <connection from="-152313" to="-152592" fromLane="0" toLane="1"/>

    <connection from="-152319" to="-152965#1" fromLane="0" toLane="1"/>

    <connection from="-152321" to="-152915" fromLane="0" toLane="1"/>

    <connection from="-152330#0" to="-152409#3" fromLane="1" toLane="1"/>
    <connection from="-152330#0" to="153637" fromLane="1" toLane="1"/>
    <connection from="-152330#0" to="153637" fromLane="2" toLane="2"/>

    <connection from="-152330#1" to="152404#0" fromLane="1" toLane="1"/>
    <connection from="-152330#1" to="-152330#0" fromLane="1" toLane="1"/>
    <connection from="-152330#1" to="-152330#0" fromLane="2" toLane="2"/>
    <connection from="-152330#1" to="-153479#11" fromLane="2" toLane="1"/>

    <connection from="-152330#2" to="-152330#1" fromLane="1" toLane="1"/>
    <connection from="-152330#2" to="-152330#1" fromLane="2" toLane="2"/>
    <connection from="-152330#2" to="153468#0" fromLane="2" toLane="1"/>

    <connection from="-152330#3" to="-152330#2" fromLane="1" toLane="1"/>
    <connection from="-152330#3" to="-152330#2" fromLane="2" toLane="2"/>

    <connection from="-152330#4" to="-152330#3" fromLane="1" toLane="1"/>
    <connection from="-152330#4" to="-152330#3" fromLane="2" toLane="2"/>
    <connection from="-152330#4" to="152407" fromLane="2" toLane="1"/>

    <connection from="-152330#5" to="-152330#4" fromLane="1" toLane="1"/>
    <connection from="-152330#5" to="-152330#4" fromLane="2" toLane="2"/>

    <connection from="-152332" to="153489#1" fromLane="1" toLane="1"/>
    <connection from="-152332" to="152931#4" fromLane="1" toLane="1"/>
    <connection from="-152332" to="-152931#3" fromLane="1" toLane="1"/>

    <connection from="-152333" to="-153548#1" fromLane="1" toLane="1"/>
    <connection from="-152333" to="153548#2" fromLane="1" toLane="1"/>

    <connection from="-152335" to="153355#3" fromLane="1" toLane="1"/>
    <connection from="-152335" to="-153355#2" fromLane="1" toLane="1"/>

    <connection from="-152336" to="153354#2" fromLane="1" toLane="1"/>
    <connection from="-152336" to="-153354#1" fromLane="1" toLane="1"/>

    <connection from="-152337" to="153354#1" fromLane="1" toLane="1"/>
    <connection from="-152337" to="-153354#0" fromLane="1" toLane="1"/>

    <connection from="-152338" to="-153361#1" fromLane="1" toLane="1"/>
    <connection from="-152338" to="153361#2" fromLane="1" toLane="1"/>

    <connection from="-152339" to="153367#1" fromLane="1" toLane="1"/>
    <connection from="-152339" to="-153367#0" fromLane="1" toLane="1"/>

    <connection from="-152340" to="-153381#0" fromLane="1" toLane="1"/>
    <connection from="-152340" to="153381#1" fromLane="1" toLane="2"/>

    <connection from="-152341" to="-152972#1" fromLane="1" toLane="1"/>
    <connection from="-152341" to="152972#2" fromLane="1" toLane="1"/>

    <connection from="-152342" to="152474#0" fromLane="1" toLane="1"/>
    <connection from="-152342" to="-153388#1" fromLane="1" toLane="1"/>
    <connection from="-152342" to="153388#2" fromLane="1" toLane="1"/>

    <connection from="-152347#0" to="-152347#1" fromLane="1" toLane="1"/>
    <connection from="-152347#0" to="-152165#1" fromLane="1" toLane="1"/>
    <connection from="-152347#0" to="152535#0" fromLane="1" toLane="1"/>

    <connection from="-152347#1" to="-152347#0" fromLane="1" toLane="1"/>
    <connection from="-152347#1" to="152460" fromLane="1" toLane="1"/>

    <connection from="-152349" to="-152582#1" fromLane="1" toLane="1"/>
    <connection from="-152349" to="-152590#2" fromLane="1" toLane="1"/>
    <connection from="-152349" to="152582#2" fromLane="1" toLane="2"/>

    <connection from="-152351" to="-152442" fromLane="1" toLane="1"/>

    <connection from="-152352#0" to="152352#0" fromLane="1" toLane="1"/>

    <connection from="-152352#1" to="-152352#0" fromLane="1" toLane="1"/>
    <connection from="-152352#1" to="152539#0" fromLane="1" toLane="1"/>

    <connection from="-152352#2" to="-152599" fromLane="1" toLane="1"/>
    <connection from="-152352#2" to="-152352#1" fromLane="1" toLane="1"/>

    <connection from="-152354#0" to="152353#3" fromLane="1" toLane="1"/>

    <connection from="-152355#0" to="-152176#1" fromLane="1" toLane="1"/>
    <connection from="-152355#0" to="152176#2" fromLane="1" toLane="1"/>

    <connection from="-152355#1" to="-152355#0" fromLane="1" toLane="1"/>

    <connection from="-152357" to="-152626#0" fromLane="1" toLane="1"/>
    <connection from="-152357" to="152626#1" fromLane="1" toLane="1"/>

    <connection from="-152358" to="152358" fromLane="1" toLane="1"/>

    <connection from="-152359" to="153490#2" fromLane="1" toLane="1"/>
    <connection from="-152359" to="-153490#1" fromLane="1" toLane="2"/>

    <connection from="-152360" to="152360" fromLane="1" toLane="1"/>

    <connection from="-152361" to="152361" fromLane="1" toLane="1"/>

    <connection from="-152364" to="-152652#0" fromLane="1" toLane="1"/>
    <connection from="-152364" to="152652#1" fromLane="1" toLane="1"/>

    <connection from="-152367" to="153404#4" fromLane="1" toLane="1"/>
    <connection from="-152367" to="-153404#3" fromLane="1" toLane="1"/>

    <connection from="-152368" to="-153327#11" fromLane="1" toLane="1"/>
    <connection from="-152368" to="153327#12" fromLane="1" toLane="1"/>

    <connection from="-152370#0" to="-153440#5" fromLane="1" toLane="1"/>
    <connection from="-152370#0" to="153440#6" fromLane="1" toLane="2"/>

    <connection from="-152370#1" to="-152370#0" fromLane="1" toLane="1"/>
    <connection from="-152370#1" to="152482" fromLane="1" toLane="1"/>

    <connection from="-152371" to="-153421#0" fromLane="1" toLane="1"/>
    <connection from="-152371" to="153421#1" fromLane="1" toLane="1"/>

    <connection from="-152372" to="-152741#0" fromLane="1" toLane="1"/>
    <connection from="-152372" to="152741#1" fromLane="1" toLane="1"/>

    <connection from="-152373" to="152373" fromLane="1" toLane="1"/>

    <connection from="-152374#0" to="152374#0" fromLane="1" toLane="1"/>

    <connection from="-152374#1" to="152735" fromLane="1" toLane="1"/>
    <connection from="-152374#1" to="-152374#0" fromLane="1" toLane="1"/>

    <connection from="-152374#2" to="-152374#1" fromLane="1" toLane="1"/>
    <connection from="-152374#2" to="-152740" fromLane="1" toLane="1"/>

    <connection from="-152375" to="-152378#0" fromLane="1" toLane="1"/>
    <connection from="-152375" to="152378#1" fromLane="1" toLane="1"/>

    <connection from="-152376" to="153451#4" fromLane="1" toLane="1"/>
    <connection from="-152376" to="-153451#3" fromLane="1" toLane="2"/>

    <connection from="-152377" to="153456#1" fromLane="1" toLane="1"/>
    <connection from="-152377" to="-153456#0" fromLane="1" toLane="1"/>

    <connection from="-152378#0" to="-152751#0" fromLane="1" toLane="1"/>
    <connection from="-152378#0" to="-152749" fromLane="1" toLane="1"/>
    <connection from="-152378#0" to="152751#2" fromLane="1" toLane="1"/>

    <connection from="-152378#1" to="152375" fromLane="1" toLane="1"/>
    <connection from="-152378#1" to="-152378#0" fromLane="1" toLane="1"/>

    <connection from="-152380" to="-152383#0" fromLane="1" toLane="1"/>
    <connection from="-152380" to="152383#1" fromLane="1" toLane="1"/>

    <connection from="-152381" to="152665" fromLane="1" toLane="1"/>
    <connection from="-152381" to="-152716" fromLane="1" toLane="1"/>
    <connection from="-152381" to="152781" fromLane="1" toLane="1"/>

    <connection from="-152383#0" to="-153553" fromLane="1" toLane="1"/>
    <connection from="-152383#0" to="-152422#1" fromLane="1" toLane="1"/>

    <connection from="-152383#1" to="152380" fromLane="1" toLane="1"/>
    <connection from="-152383#1" to="-152383#0" fromLane="1" toLane="1"/>

    <connection from="-152385" to="-152293" fromLane="0" toLane="0"/>

    <connection from="-152386#0" to="152811" fromLane="1" toLane="1"/>

    <connection from="-152386#1" to="-152831#0" fromLane="1" toLane="1"/>
    <connection from="-152386#1" to="-152386#0" fromLane="1" toLane="1"/>
    <connection from="-152386#1" to="152831#1" fromLane="1" toLane="1"/>

    <connection from="-152386#2" to="-152386#1" fromLane="1" toLane="1"/>
    <connection from="-152386#2" to="-152783#1" fromLane="1" toLane="1"/>

    <connection from="-152386#3" to="-152386#2" fromLane="1" toLane="1"/>
    <connection from="-152386#3" to="-152784#1" fromLane="1" toLane="1"/>

    <connection from="-152390" to="-153335#4" fromLane="1" toLane="1"/>
    <connection from="-152390" to="153335#5" fromLane="1" toLane="1"/>

    <connection from="-152391" to="-152836#2" fromLane="1" toLane="1"/>
    <connection from="-152391" to="152836#3" fromLane="1" toLane="1"/>

    <connection from="-152392" to="152392" fromLane="1" toLane="1"/>

    <connection from="-152393" to="153456#3" fromLane="1" toLane="1"/>
    <connection from="-152393" to="-153456#2" fromLane="1" toLane="1"/>

    <connection from="-152396#1" to="-152873#1" fromLane="1" toLane="1"/>
    <connection from="-152396#1" to="152873#2" fromLane="1" toLane="1"/>

    <connection from="-152396#2" to="-152396#1" fromLane="1" toLane="1"/>
    <connection from="-152396#2" to="153248#2" fromLane="1" toLane="0"/>

    <connection from="-152398#0" to="152458#3" fromLane="1" toLane="1"/>

    <connection from="-152398#1" to="-152398#0" fromLane="1" toLane="1"/>

    <connection from="-152398#2" to="-152398#1" fromLane="1" toLane="1"/>
    <connection from="-152398#2" to="152646" fromLane="1" toLane="1"/>

    <connection from="-152398#3" to="-152398#2" fromLane="1" toLane="1"/>
    <connection from="-152398#3" to="153225#0" fromLane="1" toLane="0"/>

    <connection from="-152398#4" to="-152398#3" fromLane="1" toLane="1"/>
    <connection from="-152398#4" to="152858" fromLane="1" toLane="1"/>

    <connection from="-152400" to="-152132" fromLane="1" toLane="1"/>
    <connection from="-152400" to="152421" fromLane="1" toLane="1"/>

    <connection from="-152401" to="153008#1" fromLane="1" toLane="1"/>
    <connection from="-152401" to="-153008#0" fromLane="1" toLane="1"/>

    <connection from="-152404#0" to="-152330#0" fromLane="1" toLane="1"/>
    <connection from="-152404#0" to="-153479#11" fromLane="1" toLane="1"/>
    <connection from="-152404#0" to="152330#1" fromLane="1" toLane="2"/>

    <connection from="-152404#1" to="-152404#0" fromLane="1" toLane="1"/>

    <connection from="-152404#2" to="-152404#1" fromLane="1" toLane="1"/>

    <connection from="-152404#3" to="152980" fromLane="1" toLane="1"/>
    <connection from="-152404#3" to="-152404#2" fromLane="1" toLane="1"/>

    <connection from="-152407" to="152330#4" fromLane="1" toLane="1"/>
    <connection from="-152407" to="-152330#3" fromLane="1" toLane="2"/>

    <connection from="-152408" to="152408" fromLane="1" toLane="1"/>

    <connection from="-152409#0" to="-152908#7" fromLane="1" toLane="1"/>
    <connection from="-152409#0" to="-152908#7" fromLane="2" toLane="2"/>
    <connection from="-152409#0" to="152931#0" fromLane="2" toLane="1"/>

    <connection from="-152409#1" to="-152409#0" fromLane="1" toLane="1"/>
    <connection from="-152409#1" to="-152409#0" fromLane="2" toLane="2"/>
    <connection from="-152409#1" to="153572#0" fromLane="2" toLane="1"/>

    <connection from="-152409#2" to="152904#0" fromLane="1" toLane="1"/>
    <connection from="-152409#2" to="-152409#1" fromLane="2" toLane="2"/>

    <connection from="-152409#3" to="-153454#1" fromLane="1" toLane="1"/>
    <connection from="-152409#3" to="-152409#2" fromLane="1" toLane="1"/>
    <connection from="-152409#3" to="-152409#2" fromLane="2" toLane="2"/>

    <connection from="-152411" to="152928#1" fromLane="1" toLane="1"/>
    <connection from="-152411" to="152928#1" fromLane="2" toLane="2"/>

    <connection from="-152413#0" to="152412" fromLane="1" toLane="1"/>
    <connection from="-152413#0" to="152412" fromLane="2" toLane="2"/>

    <connection from="-152413#1" to="-152413#0" fromLane="1" toLane="1"/>
    <connection from="-152413#1" to="-152413#0" fromLane="2" toLane="2"/>
    <connection from="-152413#1" to="-152750#8" fromLane="2" toLane="1"/>

    <connection from="-152413#2" to="-152756#2" fromLane="1" toLane="1"/>
    <connection from="-152413#2" to="-152413#1" fromLane="1" toLane="1"/>
    <connection from="-152413#2" to="-152413#1" fromLane="2" toLane="2"/>

    <connection from="-152413#3" to="-152413#2" fromLane="1" toLane="1"/>
    <connection from="-152413#3" to="-152413#2" fromLane="2" toLane="2"/>
    <connection from="-152413#3" to="153394#0" fromLane="2" toLane="1"/>

    <connection from="-152418" to="-152958" fromLane="1" toLane="1"/>
    <connection from="-152418" to="-152958" fromLane="2" toLane="2"/>
    <connection from="-152418" to="152132" fromLane="2" toLane="1"/>
    <connection from="-152418" to="152538#0" fromLane="2" toLane="2"/>

    <connection from="-152420" to="152787#2" fromLane="1" toLane="1"/>
    <connection from="-152420" to="-152787#1" fromLane="1" toLane="1"/>

    <connection from="-152421" to="152400" fromLane="1" toLane="1"/>
    <connection from="-152421" to="-152132" fromLane="1" toLane="1"/>

    <connection from="-152422#0" to="152789#1" fromLane="1" toLane="1"/>
    <connection from="-152422#0" to="-152789#0" fromLane="1" toLane="1"/>

    <connection from="-152422#1" to="-152422#0" fromLane="1" toLane="1"/>

    <connection from="-152426" to="-152750#5" fromLane="1" toLane="1"/>
    <connection from="-152426" to="152428" fromLane="1" toLane="1"/>
    <connection from="-152426" to="152750#7" fromLane="1" toLane="1"/>

    <connection from="-152427" to="153394#4" fromLane="1" toLane="1"/>
    <connection from="-152427" to="-153394#3" fromLane="1" toLane="1"/>

    <connection from="-152428" to="152750#7" fromLane="1" toLane="1"/>
    <connection from="-152428" to="152426" fromLane="1" toLane="1"/>
    <connection from="-152428" to="-152750#5" fromLane="1" toLane="1"/>

    <connection from="-152439" to="153368#1" fromLane="1" toLane="1"/>
    <connection from="-152439" to="-153368#0" fromLane="1" toLane="1"/>

    <connection from="-152440#0" to="152440#0" fromLane="1" toLane="1"/>

    <connection from="-152440#1" to="-152440#0" fromLane="1" toLane="1"/>

    <connection from="-152441#0" to="-153059#0" fromLane="1" toLane="1"/>
    <connection from="-152441#0" to="153059#1" fromLane="1" toLane="1"/>

    <connection from="-152441#1" to="153060" fromLane="1" toLane="1"/>
    <connection from="-152441#1" to="-152441#0" fromLane="1" toLane="1"/>

    <connection from="-152441#2" to="152972#0" fromLane="1" toLane="1"/>
    <connection from="-152441#2" to="-152441#1" fromLane="1" toLane="1"/>

    <connection from="-152441#3" to="153618#1" fromLane="1" toLane="0"/>
    <connection from="-152441#3" to="-152441#2" fromLane="1" toLane="1"/>

    <connection from="-152442" to="-153381#6" fromLane="1" toLane="1"/>
    <connection from="-152442" to="153381#7" fromLane="1" toLane="2"/>

    <connection from="-152443" to="-152471#0" fromLane="1" toLane="1"/>
    <connection from="-152443" to="152471#1" fromLane="1" toLane="1"/>

    <connection from="-152445" to="-153070#0" fromLane="1" toLane="1"/>
    <connection from="-152445" to="153070#1" fromLane="1" toLane="1"/>
    <connection from="-152445" to="-153488#0" fromLane="1" toLane="1"/>

    <connection from="-152446" to="152931#3" fromLane="1" toLane="1"/>
    <connection from="-152446" to="-152931#2" fromLane="1" toLane="1"/>

    <connection from="-152447" to="152447" fromLane="1" toLane="1"/>

    <connection from="-152448" to="152448" fromLane="1" toLane="1"/>

    <connection from="-152449" to="-152725#1" fromLane="1" toLane="1"/>
    <connection from="-152449" to="152725#2" fromLane="1" toLane="1"/>

    <connection from="-152450" to="-152147" fromLane="1" toLane="1"/>
    <connection from="-152450" to="153262#1" fromLane="1" toLane="0"/>

    <connection from="-152451" to="152874#1" fromLane="1" toLane="1"/>

    <connection from="-152452" to="152452" fromLane="1" toLane="1"/>

    <connection from="-152453" to="-152223" fromLane="1" toLane="1"/>
    <connection from="-152453" to="-152223" fromLane="2" toLane="2"/>

    <connection from="-152455" to="-152965#0" fromLane="1" toLane="1"/>
    <connection from="-152455" to="152965#1" fromLane="1" toLane="1"/>

    <connection from="-152457#0" to="-152457#1" fromLane="1" toLane="1"/>
    <connection from="-152457#0" to="152457#2" fromLane="1" toLane="1"/>

    <connection from="-152457#1" to="-152457#0" fromLane="1" toLane="1"/>

    <connection from="-152457#2" to="152457#0" fromLane="1" toLane="1"/>
    <connection from="-152457#2" to="-152457#1" fromLane="1" toLane="1"/>

    <connection from="-152459#0" to="152459#0" fromLane="1" toLane="1"/>

    <connection from="-152459#1" to="-152460" fromLane="1" toLane="1"/>
    <connection from="-152459#1" to="-152459#0" fromLane="1" toLane="1"/>

    <connection from="-152460" to="152347#1" fromLane="1" toLane="1"/>
    <connection from="-152460" to="-152347#0" fromLane="1" toLane="1"/>

    <connection from="-152462" to="152960#3" fromLane="1" toLane="1"/>

    <connection from="-152463#0" to="152463#0" fromLane="1" toLane="1"/>

    <connection from="-152463#1" to="-152462" fromLane="1" toLane="1"/>
    <connection from="-152463#1" to="-152463#0" fromLane="1" toLane="1"/>

    <connection from="-152464" to="-152789#3" fromLane="1" toLane="1"/>
    <connection from="-152464" to="152789#4" fromLane="1" toLane="1"/>

    <connection from="-152465#0" to="152970#1" fromLane="1" toLane="1"/>
    <connection from="-152465#0" to="-152970#0" fromLane="1" toLane="1"/>

    <connection from="-152465#1" to="-153555" fromLane="1" toLane="1"/>
    <connection from="-152465#1" to="-152465#0" fromLane="1" toLane="1"/>

    <connection from="-152469" to="-152908#6" fromLane="1" toLane="1"/>
    <connection from="-152469" to="152908#7" fromLane="1" toLane="2"/>

    <connection from="-152470" to="-153444#3" fromLane="1" toLane="1"/>
    <connection from="-152470" to="153444#4" fromLane="1" toLane="2"/>

    <connection from="-152471#0" to="-152913#1" fromLane="1" toLane="1"/>
    <connection from="-152471#0" to="152913#2" fromLane="1" toLane="1"/>

    <connection from="-152471#1" to="152443" fromLane="1" toLane="1"/>
    <connection from="-152471#1" to="-152471#0" fromLane="1" toLane="1"/>

    <connection from="-152472#0" to="152676#3" fromLane="1" toLane="1"/>
    <connection from="-152472#0" to="-152676#2" fromLane="1" toLane="1"/>

    <connection from="-152472#1" to="-152472#0" fromLane="1" toLane="1"/>

    <connection from="-152473" to="153485#2" fromLane="1" toLane="1"/>
    <connection from="-152473" to="-153485#1" fromLane="1" toLane="2"/>

    <connection from="-152474#0" to="-153388#1" fromLane="1" toLane="1"/>
    <connection from="-152474#0" to="153388#2" fromLane="1" toLane="1"/>
    <connection from="-152474#0" to="152343" fromLane="1" toLane="1"/>

    <connection from="-152474#1" to="-152474#0" fromLane="1" toLane="1"/>
    <connection from="-152474#1" to="-152477" fromLane="1" toLane="1"/>

    <connection from="-152474#2" to="-152474#1" fromLane="1" toLane="1"/>
    <connection from="-152474#2" to="152477" fromLane="1" toLane="1"/>

    <connection from="-152475" to="-153039" fromLane="1" toLane="1"/>
    <connection from="-152475" to="153041" fromLane="1" toLane="1"/>

    <connection from="-152476" to="-152478#0" fromLane="1" toLane="1"/>