<?xml version="1.0" encoding="UTF-8"?>

<!-- generated on Sun Feb 28 19:29:30 2021 by Eclipse SUMO netconvert Version 1.4.0
<configuration xmlns:xsi="http://www.w3.org/2001/XMLSchema-instance" xsi:noNamespaceSchemaLocation="http://sumo.dlr.de/xsd/netconvertConfiguration.xsd">

    <input>
        <sumo-net-file value="most.net.xml"/>
    </input>

    <output>
        <plain-output-prefix value="most"/>
    </output>

    <processing>
        <geometry.min-radius.fix.railways value="false"/>
        <geometry.max-grade.fix value="false"/>
        <offset.disable-normalization value="true"/>
        <lefthand value="false"/>
    </processing>

    <junctions>
        <no-turnarounds value="true"/>
        <junctions.corner-detail value="5"/>
        <junctions.limit-turn-speed value="1"/>
        <rectangular-lane-cut value="false"/>
    </junctions>

    <pedestrian>
        <walkingareas value="true"/>
    </pedestrian>

    <report>
        <aggregate-warnings value="5"/>
    </report>

</configuration>
-->

<edges version="1.3" xmlns:xsi="http://www.w3.org/2001/XMLSchema-instance" xsi:noNamespaceSchemaLocation="http://sumo.dlr.de/xsd/edges_file.xsd">
    <edge id="-152132" from="139024" to="137694" priority="4" type="highway.residential" numLanes="2" speed="13.89">
        <lane index="0" allow="pedestrian" width="1.50"/>
        <lane index="1" disallow="pedestrian tram rail_urban rail rail_electric ship"/>
    </edge>
    <edge id="-152133#0" from="cluster_140680_141690" to="150923" priority="4" type="highway.residential" numLanes="1" speed="13.89" shape="4660.23,825.69,6.40 4666.01,829.27,6.00 4685.77,845.16,4.20 4699.40,855.99,7.50 4732.13,876.58,7.74 4754.53,890.68,5.19 4769.95,899.74,3.70" width="1.50" allow="pedestrian"/>
    <edge id="-152134" from="140134" to="148090" priority="4" type="highway.residential" numLanes="2" speed="13.89" shape="4717.44,1493.31,11.90 4717.03,1523.76,8.10 4716.53,1553.22,8.10">
        <lane index="0" allow="pedestrian" width="1.50"/>
        <lane index="1" disallow="pedestrian tram rail_urban rail rail_electric ship"/>
    </edge>
    <edge id="-152135#0" from="133988" to="141653" priority="4" type="highway.residential" numLanes="2" speed="13.89">
        <lane index="0" allow="pedestrian" width="1.50"/>
        <lane index="1" disallow="pedestrian tram rail_urban rail rail_electric ship"/>
    </edge>
    <edge id="-152135#1" from="138934" to="133988" priority="4" type="highway.residential" numLanes="2" speed="13.89">
        <lane index="0" allow="pedestrian" width="1.50"/>
        <lane index="1" disallow="pedestrian tram rail_urban rail rail_electric ship"/>
    </edge>
    <edge id="-152139" from="147605" to="143389" priority="7" type="highway.secondary_tunnel" numLanes="2" speed="27.78" shape="4385.96,1398.06,21.35 4378.64,1415.23,21.40 4368.53,1438.01,21.40" disallow="pedestrian tram rail_urban rail rail_electric ship"/>
    <edge id="-152140" from="138808" to="134432" priority="7" type="highway.secondary" numLanes="1" speed="13.89" shape="4749.59,1973.95,6.80 4747.96,1956.50,6.60 4742.85,1938.21,6.10 4735.83,1924.56,5.40 4729.77,1907.88,4.30 4725.40,1891.26,3.80 4721.57,1868.19,3.80 4717.90,1825.76,3.80 4717.99,1803.31,4.20" width="1.50" allow="pedestrian"/>
    <edge id="-152145" from="143376" to="148546" priority="4" type="highway.residential" numLanes="1" speed="13.89" shape="6445.81,3578.09,5.90 6457.20,3583.48,6.00 6473.43,3587.03,6.00 6516.07,3596.96,6.60 6529.88,3597.92,5.90" width="1.50" allow="pedestrian"/>
    <edge id="-152146" from="136700" to="135725" priority="4" type="highway.residential" numLanes="2" speed="13.89" shape="3949.26,2834.15,230.60 3978.98,2832.21,228.70 3991.59,2831.87,228.60 3994.09,2831.88,229.60 3998.77,2832.74,230.30 4012.27,2835.03,232.00 4019.56,2834.68,232.30 4025.65,2832.92,232.40 4035.50,2826.67,232.30 4037.76,2824.69,232.20 4044.61,2821.17,232.40 4052.19,2816.78,234.00 4065.77,2809.41,237.60 4068.16,2807.06,237.97 4080.54,2794.93,241.47 4096.85,2792.08,241.80">
        <lane index="0" allow="pedestrian" width="1.50"/>
        <lane index="1" disallow="pedestrian tram rail_urban rail rail_electric ship"/>
    </edge>
    <edge id="-152147" from="151287" to="138489" priority="4" type="highway.residential" numLanes="2" speed="13.89">
        <lane index="0" allow="pedestrian" width="1.50"/>
        <lane index="1" disallow="pedestrian tram rail_urban rail rail_electric ship"/>
    </edge>
    <edge id="-152148" from="138489" to="140188" priority="4" type="highway.residential" numLanes="2" speed="13.89" shape="4355.45,2937.45,274.60 4350.34,2934.31,274.80 4345.44,2930.88,275.70 4338.94,2923.32,275.86 4337.54,2921.68,275.66 4324.61,2901.46,274.80">
        <lane index="0" allow="pedestrian" width="1.50"/>
        <lane index="1" disallow="pedestrian tram rail_urban rail rail_electric ship"/>
    </edge>
    <edge id="-152149" from="143698" to="135027" priority="4" type="highway.residential" numLanes="2" speed="13.89" shape="3098.21,2872.97,483.30 3082.77,2876.94,482.30 3064.96,2880.48,477.20">
        <lane index="0" allow="pedestrian" width="1.50"/>
        <lane index="1" disallow="pedestrian tram rail_urban rail rail_electric ship"/>
    </edge>
    <edge id="-152162" from="135208" to="131914" priority="4" type="highway.residential" numLanes="2" speed="13.89">
        <lane index="0" allow="pedestrian" width="1.50"/>
        <lane index="1" disallow="pedestrian tram rail_urban rail rail_electric ship"/>
    </edge>
    <edge id="-152163#0" from="150004" to="139324" priority="4" type="highway.residential" numLanes="2" speed="13.89" shape="4445.03,736.62,5.35 4408.77,775.53,4.80 4384.19,799.23,5.30 4379.04,809.54,5.70">
        <lane index="0" allow="pedestrian" width="1.50"/>
        <lane index="1" disallow="pedestrian tram rail_urban rail rail_electric ship"/>
    </edge>
    <edge id="-152163#1" from="143550" to="150004" priority="4" type="highway.residential" numLanes="2" speed="13.89">
        <lane index="0" allow="pedestrian" width="1.50"/>
        <lane index="1" disallow="pedestrian tram rail_urban rail rail_electric ship"/>
    </edge>
    <edge id="-152164" from="132996" to="139137" priority="4" type="highway.residential" numLanes="2" speed="13.89" shape="3533.39,228.46,21.10 3526.98,226.45,21.17 3524.56,225.64,21.53 3501.57,217.94,22.80 3467.63,211.77,23.50 3455.40,209.07,24.30 3447.56,207.45,22.40 3422.34,203.94,19.90 3405.96,203.56,21.00">
        <lane index="0" allow="pedestrian" width="1.50"/>
        <lane index="1" disallow="pedestrian tram rail_urban rail rail_electric ship"/>
    </edge>
    <edge id="-152165#0" from="132582" to="148425" priority="4" type="highway.residential" numLanes="2" speed="13.89" shape="6121.91,3325.67,6.10 6130.37,3328.04,5.80 6138.82,3330.42,5.90 6147.28,3332.80,5.90 6155.18,3336.16,5.80 6160.62,3337.62,5.70 6164.77,3339.33,5.60 6169.24,3341.27,5.50 6171.98,3342.95,5.40 6177.61,3346.61,5.30 6186.97,3351.55,5.20 6230.76,3376.73,5.20 6278.98,3411.39,5.10 6322.02,3454.47,5.20 6342.45,3483.61,5.20 6361.27,3503.25,5.30 6375.32,3515.41,5.50 6384.63,3523.34,5.70 6397.71,3534.68,5.90 6422.61,3549.86,6.10 6437.59,3557.65,6.10 6447.54,3562.22,6.10">
        <lane index="0" allow="pedestrian" width="1.50"/>
        <lane index="1" disallow="pedestrian tram rail_urban rail rail_electric ship"/>
    </edge>
    <edge id="-152165#1" from="141846" to="132582" priority="4" type="highway.residential" numLanes="2" speed="13.89" shape="6044.02,3303.26,6.40 6062.70,3309.01,6.40 6071.16,3311.38,6.50 6079.62,3313.76,6.40 6088.08,3316.15,6.40 6096.54,3318.52,6.40 6104.99,3320.91,6.40 6113.45,3323.28,6.40 6121.91,3325.67,6.10">
        <lane index="0" allow="pedestrian" width="1.50"/>
        <lane index="1" disallow="pedestrian tram rail_urban rail rail_electric ship"/>
    </edge>
    <edge id="-152166" from="132440" to="133493" priority="9" type="highway.primary" numLanes="3" speed="13.89" shape="3615.62,976.39,112.30 3606.54,966.16,112.30 3603.81,963.15,112.10 3597.01,955.54,111.70 3586.98,942.07,111.40 3582.89,934.35,111.30 3581.44,925.64,111.00 3580.47,918.84,111.76 3580.16,916.71,111.83 3578.77,900.78,112.37 3571.59,852.00,112.40">
        <lane index="0" allow="pedestrian" width="2.00"/>
        <lane index="1" disallow="pedestrian bicycle tram rail_urban rail rail_electric ship"/>
        <lane index="2" disallow="pedestrian bicycle tram rail_urban rail rail_electric ship"/>
    </edge>
    <edge id="-152167" from="139070" to="136275" priority="7" type="highway.secondary" numLanes="3" speed="13.89" shape="4582.99,1957.36,59.70 4593.97,1967.84,60.00 4625.24,1998.93,61.90 4632.56,2011.02,62.60 4634.55,2018.69,62.70 4634.59,2027.31,62.90 4627.60,2040.96,63.40 4618.65,2048.66,63.40 4613.62,2053.54,65.00">
        <lane index="0" allow="pedestrian" width="1.50"/>
        <lane index="1" disallow="pedestrian tram rail_urban rail rail_electric ship"/>
        <lane index="2" disallow="pedestrian tram rail_urban rail rail_electric ship"/>
    </edge>
    <edge id="-152168#0" from="137293" to="132440" priority="9" type="highway.primary" numLanes="3" speed="13.89" shape="3658.45,1035.32,115.90 3653.79,1022.75,115.26 3652.29,1020.69,114.97 3643.19,1008.31,114.15 3639.70,1001.85,113.80 3632.47,992.57,113.10 3615.62,976.39,112.30">
        <lane index="0" allow="pedestrian" width="2.00"/>
        <lane index="1" disallow="pedestrian bicycle tram rail_urban rail rail_electric ship"/>
        <lane index="2" disallow="pedestrian bicycle tram rail_urban rail rail_electric ship"/>
    </edge>
    <edge id="-152168#1" from="137152" to="137293" priority="9" type="highway.primary" numLanes="3" speed="13.89" shape="3668.13,1084.07,117.20 3661.96,1044.69,116.40 3658.45,1035.32,115.90">
        <lane index="0" allow="pedestrian" width="2.00"/>
        <lane index="1" disallow="pedestrian bicycle tram rail_urban rail rail_electric ship"/>
        <lane index="2" disallow="pedestrian bicycle tram rail_urban rail rail_electric ship"/>
    </edge>
    <edge id="-152169" from="135561" to="151107" priority="7" type="highway.secondary" numLanes="3" speed="13.89">
        <lane index="0" allow="pedestrian" width="1.50"/>
        <lane index="1" disallow="pedestrian tram rail_urban rail rail_electric ship"/>
        <lane index="2" disallow="pedestrian tram rail_urban rail rail_electric ship"/>
    </edge>
    <edge id="-152170#0" from="145922" to="140183" priority="6" type="highway.tertiary" numLanes="2" speed="13.89">
        <lane index="0" allow="pedestrian" width="1.50"/>
        <lane index="1" disallow="pedestrian tram rail_urban rail rail_electric ship"/>
    </edge>
    <edge id="-152170#1" from="131372" to="145922" priority="6" type="highway.tertiary" numLanes="2" speed="13.89">
        <lane index="0" allow="pedestrian" width="1.50"/>
        <lane index="1" disallow="pedestrian tram rail_urban rail rail_electric ship"/>
    </edge>
    <edge id="-152172" from="143376" to="cluster_132557_136045" priority="4" type="highway.residential" numLanes="2" speed="13.89" shape="6445.81,3578.09,5.90 6430.32,3573.58,6.50 6422.34,3569.68,6.60 6409.30,3562.15,6.90 6390.74,3553.27,10.30 6370.39,3541.98,11.50 6356.77,3535.46,13.80 6354.43,3533.53,14.00 6335.22,3518.03,16.10 6328.37,3510.41,16.92 6320.12,3501.22,18.46 6295.92,3477.99,21.55">
        <lane index="0" allow="pedestrian" width="1.50"/>
        <lane index="1" disallow="pedestrian tram rail_urban rail rail_electric ship"/>
    </edge>
    <edge id="-152173" from="148425" to="143376" priority="4" type="highway.residential" numLanes="1" speed="13.89" shape="6447.54,3562.22,6.10 6446.86,3569.71,6.30 6445.81,3578.09,5.90" width="1.50" allow="pedestrian"/>
    <edge id="-152174#0" from="143517" to="140144" priority="7" type="highway.secondary" numLanes="1" speed="13.89" shape="5022.89,2397.47,64.80 5040.23,2419.89,63.30 5053.60,2440.58,62.60" width="1.50" allow="pedestrian"/>
    <edge id="-152174#1" from="132205" to="143517" priority="7" type="highway.secondary" numLanes="1" speed="13.89" shape="4968.59,2312.18,67.60 4976.81,2324.41,68.09 4981.70,2331.51,68.66 4993.12,2348.09,67.40 5022.89,2397.47,64.80" width="1.50" allow="pedestrian"/>
    <edge id="-152175" from="138674" to="140144" priority="6" type="highway.tertiary" numLanes="1" speed="13.89" shape="5053.06,2467.40,62.70 5048.10,2457.14,62.60 5047.48,2452.87,62.60 5053.60,2440.58,62.60" width="1.50" allow="pedestrian"/>
    <edge id="-152176#0" from="133504" to="142155" priority="4" type="highway.residential" numLanes="2" speed="13.89" shape="5078.68,3600.69,212.40 5076.85,3605.65,212.04 5076.29,3610.98,210.87 5074.22,3630.70,207.80 5079.25,3656.19,205.10 5081.15,3662.86,204.60 5083.24,3665.31,204.10 5086.61,3667.46,203.60 5089.10,3668.68,204.10 5092.09,3668.35,204.60 5105.68,3655.61,204.65">
        <lane index="0" allow="pedestrian" width="1.50"/>
        <lane index="1" disallow="pedestrian tram rail_urban rail rail_electric ship"/>
    </edge>
    <edge id="-152176#1" from="152125" to="133504" priority="4" type="highway.residential" numLanes="2" speed="13.89" shape="5079.35,3498.98,218.70 5084.23,3509.26,218.13 5084.61,3511.50,217.85 5085.52,3516.98,217.50 5084.80,3542.09,215.90 5081.14,3586.78,213.10 5078.68,3600.69,212.40">
        <lane index="0" allow="pedestrian" width="1.50"/>
        <lane index="1" disallow="pedestrian tram rail_urban rail rail_electric ship"/>
    </edge>
    <edge id="-152176#2" from="136811" to="152125" priority="4" type="highway.residential" numLanes="2" speed="13.89" shape="5041.76,3433.75,227.20 5048.42,3439.57,226.99 5054.52,3453.07,224.40 5061.65,3468.85,223.00 5070.57,3483.24,220.80 5075.00,3490.40,219.03 5079.35,3498.98,218.70">
        <lane index="0" allow="pedestrian" width="1.50"/>
        <lane index="1" disallow="pedestrian tram rail_urban rail rail_electric ship"/>
    </edge>
    <edge id="-152177" from="149268" to="136811" priority="4" type="highway.residential" numLanes="2" speed="13.89" shape="5035.87,3539.08,241.50 5039.16,3532.39,241.03 5038.98,3525.88,239.79 5038.58,3511.38,238.00 5036.79,3494.18,235.10 5036.86,3480.44,234.40 5034.95,3464.66,230.99 5034.22,3458.68,230.08 5041.76,3433.75,227.20">
        <lane index="0" allow="pedestrian" width="1.50"/>
        <lane index="1" disallow="pedestrian tram rail_urban rail rail_electric ship"/>
    </edge>
    <edge id="-152191" from="134357" to="136092" priority="15" type="railway.rail" numLanes="1" speed="25.00" shape="9914.38,5042.37 9902.87,5027.05 9879.86,4996.52 9867.45,4979.53 9632.61,4657.13 9618.02,4638.89 9609.60,4626.99 9467.81,4432.89 9457.62,4419.30 9407.12,4350.92 9285.20,4180.97 9267.64,4166.22 9217.15,4121.95 9156.89,4086.68 9096.75,4058.73 9027.05,4038.70 8899.59,4025.78 8845.46,4030.44 8781.57,4044.31 8687.62,4080.26 8506.28,4178.33 8423.76,4224.20 8381.64,4248.21 8347.59,4275.54 8298.33,4321.01 8193.79,4449.69 8159.99,4490.51 8127.04,4518.54 8098.69,4538.66 8067.47,4555.80 8035.76,4570.15 8004.64,4579.79 7956.46,4590.79 7926.92,4593.71 7899.07,4594.45 7862.51,4591.45 7803.53,4578.36 7690.39,4545.38 7537.05,4500.02 7430.62,4468.01 7388.37,4450.06 7343.20,4425.08 7290.51,4379.57 7244.49,4320.60 7204.09,4262.59 7178.33,4221.07 7122.97,4077.66 7092.31,4024.19 7054.70,3977.83 7006.95,3931.36 6979.29,3907.14 6950.53,3883.30 6916.82,3859.42 6806.68,3779.28 6763.21,3753.62 6707.66,3728.83 6658.52,3711.68 6352.22,3631.54 6272.15,3624.00 6082.86,3621.12 6011.41,3612.13 5866.00,3564.73 5721.52,3475.32 5549.15,3339.95 5430.05,3221.65 5217.86,2980.48 5126.73,2857.56 4863.02,2447.70 4813.11,2362.42 4747.51,2270.56 4691.37,2192.54 4649.59,2153.17 4629.58,2136.99 4567.85,2093.95 4540.36,2073.64 4513.87,2051.59 4494.10,2037.07 4315.12,1878.11 4187.18,1786.46 4125.35,1706.46 4097.67,1659.83 4070.05,1605.88 4049.58,1518.21 4033.20,1373.82 3997.18,1117.82 3943.09,934.31 3865.69,763.50 3769.91,513.38 3754.73,465.43 3743.40,393.70 3731.66,367.02 3718.93,346.36 3703.83,325.54 3684.04,307.82 3667.67,298.46 3646.13,291.76 3496.67,274.18 3446.98,275.78 3247.22,296.11 3179.43,296.99 3115.65,286.89 3026.51,270.96 2981.28,257.18 2938.38,239.71 2851.40,201.54 2736.00,168.24 2700.64,162.45 2654.37,161.19 2584.29,168.81 2520.23,187.06 2472.41,206.94 2429.91,233.60 2315.90,361.60 2252.42,442.94 2220.45,476.74 2180.90,510.25 2151.40,527.61 2033.46,563.72 1922.99,572.97 1785.71,560.35 1647.84,527.51 1533.08,483.44 1486.85,462.38 1433.66,428.10 1389.96,392.55 1348.63,357.82 1299.15,313.57 1255.29,281.04 1215.56,249.94 1085.10,166.76 1054.96,150.35 987.15,131.64 897.07,122.43 742.19,127.61 560.19,171.69 524.74,181.65 481.32,193.70 433.87,210.36 397.45,227.22 370.77,244.55 338.38,266.95 315.01,287.65 278.53,326.03 214.69,390.58 190.56,411.15 167.33,427.33 137.61,443.64 106.55,457.39 76.46,467.02 54.74,472.18 21.92,477.39 0.00,479.53" allow="rail rail_electric rail_fast">
        <param key="railway:track_ref" value="2"/>
    </edge>
    <edge id="-152202" from="147631" to="148779" priority="9" type="highway.primary_bridge" numLanes="1" speed="27.78" shape="1109.42,2942.68,374.80 1116.05,2946.89,373.80 1116.97,2947.58,373.70 1123.54,2953.14,373.30 1123.76,2953.33,373.30 1125.67,2954.88,373.20" width="2.00" allow="pedestrian"/>
    <edge id="-152203" from="147380" to="148096" priority="9" type="highway.primary_bridge" numLanes="1" speed="27.78" shape="1129.73,2950.07,373.80 1127.58,2948.12,374.30 1119.94,2942.48,374.50 1119.42,2942.23,374.60 1118.15,2941.42,374.80 1115.72,2939.80,375.00 1113.09,2938.18,375.30" width="2.00" allow="pedestrian"/>
    <edge id="-152204" from="150795" to="142205" priority="9" type="highway.primary_bridge" numLanes="1" speed="27.78" shape="1040.22,2908.78,382.30 1034.64,2908.00,382.70 1033.73,2907.86,380.20 1027.34,2906.84,383.40 1025.71,2906.56,383.50" width="2.00" allow="pedestrian"/>
    <edge id="-152205" from="151863" to="137857" priority="9" type="highway.primary_bridge" numLanes="1" speed="27.78" shape="1025.07,2912.62,382.60 1030.74,2913.40,382.00 1032.56,2913.76,379.30 1035.52,2914.35,381.50 1039.48,2915.05,381.30" width="2.00" allow="pedestrian"/>
    <edge id="-152206" from="143676" to="140755" priority="6" type="highway.tertiary_bridge" numLanes="1" speed="22.22" shape="4787.41,2031.85,23.40 4781.07,2030.23,23.00 4777.37,2029.10,23.00 4770.80,2027.09,23.00 4753.27,2021.89,23.10 4732.75,2012.91,23.10 4709.39,2000.83,23.10 4699.23,1995.08,23.65" disallow="pedestrian tram rail_urban rail rail_electric ship"/>
    <edge id="-152210" from="133553" to="135157" priority="9" type="highway.primary_bridge" numLanes="2" speed="27.78" shape="2051.64,1622.94,259.00 2044.97,1626.14,258.90 2023.60,1639.28,261.10 2018.89,1642.04,262.00 2006.47,1652.69,264.30 1999.77,1658.31,265.50 1992.49,1665.20,266.70 1986.57,1670.73,268.20" disallow="pedestrian bicycle tram rail_urban rail rail_electric ship"/>
    <edge id="-152213" from="140694" to="151162" priority="4" type="highway.residential_bridge" numLanes="2" speed="13.89" shape="6696.70,3654.14,30.50 6693.28,3666.03,31.40 6691.08,3674.24,32.09 6690.07,3678.00,31.90 6688.29,3682.19,31.80">
        <lane index="0" allow="pedestrian" width="1.50"/>
        <lane index="1" disallow="pedestrian tram rail_urban rail rail_electric ship"/>
    </edge>
    <edge id="-152215" from="134840" to="139913" priority="6" type="highway.tertiary_bridge" numLanes="2" speed="22.22" shape="5724.64,3776.66,151.20 5726.08,3785.08,152.10 5729.19,3791.75,152.50 5734.21,3797.29,152.40">
        <lane index="0" allow="pedestrian" width="1.50"/>
        <lane index="1" disallow="pedestrian tram rail_urban rail rail_electric ship"/>
    </edge>
    <edge id="-152216" from="132203" to="cluster_141195_145437_146522" priority="6" type="highway.tertiary_bridge" numLanes="1" speed="22.22" shape="6161.27,3575.02,49.90 6151.46,3573.96,50.40 6139.52,3573.56,50.90 6125.67,3573.11,51.10 6115.55,3572.78,51.70 6110.78,3572.62,51.80 6107.06,3572.50,52.10 6100.26,3572.27,52.50 6095.98,3572.13,53.28 6085.81,3574.35,53.80" width="1.50" allow="pedestrian"/>
    <edge id="-152218" from="145936" to="138985" priority="6" type="highway.tertiary_bridge" numLanes="2" speed="22.22" shape="6235.09,3426.23,27.70 6228.70,3422.69,28.30 6221.33,3421.84,29.90 6217.24,3422.25,30.90 6210.37,3425.48,30.10 6206.50,3428.58,30.20 6203.29,3432.62,29.40">
        <lane index="0" allow="pedestrian" width="1.50"/>
        <lane index="1" disallow="pedestrian tram rail_urban rail rail_electric ship"/>
    </edge>
    <edge id="-152219" from="cluster_137992_138236_151078" to="133938" priority="7" type="highway.secondary_bridge" numLanes="1" speed="27.78" shape="6143.41,3593.41,54.90 6140.47,3586.31,54.80 6133.90,3569.56,54.50 6124.87,3551.65,53.65" width="1.50" allow="pedestrian"/>
    <edge id="-152220" from="141557" to="147085" priority="6" type="highway.tertiary_bridge" numLanes="2" speed="22.22" shape="6157.04,3388.09,21.10 6151.83,3385.48,21.20 6151.30,3385.11,21.20 6147.53,3382.99,21.40">
        <lane index="0" allow="pedestrian" width="1.50"/>
        <lane index="1" disallow="pedestrian tram rail_urban rail rail_electric ship"/>
    </edge>
    <edge id="-152221" from="cluster_141195_145437_146522" to="135256" priority="7" type="highway.secondary_bridge" numLanes="1" speed="27.78" shape="6083.88,3585.66,53.90 6084.14,3589.04,54.00 6084.36,3592.03,54.10 6086.09,3596.41,54.20 6091.74,3603.61,54.00 6099.50,3608.14,54.30" width="1.50" allow="pedestrian"/>
    <edge id="-152223" from="147613" to="135561" priority="7" type="highway.secondary_bridge" numLanes="3" speed="27.78">
        <lane index="0" allow="pedestrian" width="1.50"/>
        <lane index="1" disallow="pedestrian tram rail_urban rail rail_electric ship"/>
        <lane index="2" disallow="pedestrian tram rail_urban rail rail_electric ship"/>
    </edge>
    <edge id="-152224" from="140183" to="146305" priority="6" type="highway.tertiary_bridge" numLanes="2" speed="22.22">
        <lane index="0" allow="pedestrian" width="1.50"/>
        <lane index="1" disallow="pedestrian tram rail_urban rail rail_electric ship"/>
    </edge>
    <edge id="-152226" from="131389" to="146688" priority="6" type="highway.tertiary_bridge" numLanes="1" speed="22.22" shape="5423.73,2680.99,17.90 5418.62,2641.18,17.90 5418.38,2612.63,17.90 5422.00,2559.42,17.80 5430.90,2481.77,17.60 5431.71,2469.89,17.60 5432.91,2452.45,17.60 5434.38,2439.17,17.70 5432.72,2408.66,18.00 5432.67,2390.62,18.20 5430.82,2363.49,18.50 5430.38,2358.92,18.50 5429.01,2351.30,17.83 5426.28,2336.36,16.51 5425.13,2330.34,15.97 5423.06,2320.17,15.20" disallow="pedestrian tram rail_urban rail rail_electric ship"/>
    <edge id="-152229" from="137164" to="145241" priority="7" type="highway.secondary_bridge" numLanes="1" speed="27.78" shape="4558.76,2149.28,70.70 4563.58,2157.45,71.00 4565.02,2159.44,71.29 4568.17,2163.81,71.50 4573.89,2169.79,72.06 4576.33,2172.32,72.53 4586.70,2176.96,73.00" width="1.50" allow="pedestrian"/>
    <edge id="-152230" from="150516" to="131710" priority="7" type="highway.secondary_bridge" numLanes="1" speed="27.78" shape="4576.61,2084.04,70.60 4579.35,2072.44,70.80 4584.63,2061.32,71.30" width="1.50" allow="pedestrian"/>
    <edge id="-152234" from="145241" to="151738" priority="7" type="highway.secondary_bridge" numLanes="1" speed="27.78" shape="4586.70,2176.96,73.00 4584.62,2171.90,72.95 4583.03,2168.59,72.42 4582.01,2166.48,72.30 4579.99,2163.14,71.50 4577.15,2159.41,71.20 4572.63,2153.31,70.70" width="1.50" allow="pedestrian"/>
    <edge id="-152239" from="143270" to="134927" priority="9" type="highway.primary_bridge" numLanes="3" speed="27.78" shape="7486.95,4828.90,77.10 7484.19,4830.81,77.10 7449.10,4842.77,77.00">
        <lane index="0" allow="pedestrian" width="2.00"/>
        <lane index="1" disallow="pedestrian bicycle tram rail_urban rail rail_electric ship"/>
        <lane index="2" disallow="pedestrian bicycle tram rail_urban rail rail_electric ship"/>
    </edge>
    <edge id="-152241" from="151557" to="141342" priority="9" type="highway.primary_bridge" numLanes="2" speed="27.78" shape="7241.78,5498.31,224.70 7239.64,5499.17,224.10 7237.74,5499.22,224.30 7234.04,5499.30,224.70" disallow="pedestrian bicycle tram rail_urban rail rail_electric ship"/>
    <edge id="-152242" from="133735" to="147033" priority="6" type="highway.tertiary_bridge" numLanes="1" speed="22.22" disallow="pedestrian tram rail_urban rail rail_electric ship"/>
    <edge id="-152243" from="149486" to="150812" priority="6" type="highway.tertiary_bridge" numLanes="1" speed="22.22" disallow="pedestrian tram rail_urban rail rail_electric ship"/>
    <edge id="-152244" from="143574" to="146294" priority="7" type="highway.secondary_bridge" numLanes="3" speed="27.78" shape="5373.37,4241.64,359.30 5369.73,4239.80,359.40 5367.87,4237.74,359.40 5366.01,4235.68,359.50 5363.48,4227.35,359.70">
        <lane index="0" allow="pedestrian" width="1.50"/>
        <lane index="1" disallow="pedestrian tram rail_urban rail rail_electric ship"/>
        <lane index="2" disallow="pedestrian tram rail_urban rail rail_electric ship"/>
    </edge>
    <edge id="-152245" from="136784" to="131949" priority="9" type="highway.primary_bridge" numLanes="3" speed="27.78" shape="5915.15,3877.61,150.90 5905.62,3881.24,152.40 5900.51,3882.52,152.60 5897.40,3883.51,152.70">
        <lane index="0" allow="pedestrian" width="2.00"/>
        <lane index="1" disallow="pedestrian bicycle tram rail_urban rail rail_electric ship"/>
        <lane index="2" disallow="pedestrian bicycle tram rail_urban rail rail_electric ship"/>
    </edge>
    <edge id="-152246" from="132904" to="150483" priority="9" type="highway.primary_bridge" numLanes="2" speed="27.78" shape="5682.05,3815.46,169.30 5688.84,3819.05,169.15 5690.40,3819.93,169.20 5694.89,3822.30,167.79 5698.14,3822.86,166.15" disallow="pedestrian bicycle tram rail_urban rail rail_electric ship"/>
    <edge id="-152247" from="134768" to="141910" priority="7" type="highway.secondary_bridge" numLanes="3" speed="27.78" shape="5775.95,4273.62,341.30 5768.08,4271.60,341.20 5755.42,4263.23,341.90">
        <lane index="0" allow="pedestrian" width="1.50"/>
        <lane index="1" disallow="pedestrian tram rail_urban rail rail_electric ship"/>
        <lane index="2" disallow="pedestrian tram rail_urban rail rail_electric ship"/>
    </edge>
    <edge id="-152248" from="142995" to="148091" priority="7" type="highway.secondary_bridge" numLanes="3" speed="27.78" shape="5462.68,4236.23,355.90 5457.66,4237.50,355.90 5451.77,4239.05,356.80">
        <lane index="0" allow="pedestrian" width="1.50"/>
        <lane index="1" disallow="pedestrian tram rail_urban rail rail_electric ship"/>
        <lane index="2" disallow="pedestrian tram rail_urban rail rail_electric ship"/>
    </edge>
    <edge id="-152250" from="135719" to="149148" priority="9" type="highway.primary_bridge" numLanes="3" speed="27.78" shape="5091.81,3638.67,203.30 5090.32,3627.13,202.70 5089.34,3613.22,201.80">
        <lane index="0" allow="pedestrian" width="2.00"/>
        <lane index="1" disallow="pedestrian bicycle tram rail_urban rail rail_electric ship"/>
        <lane index="2" disallow="pedestrian bicycle tram rail_urban rail rail_electric ship"/>
    </edge>
    <edge id="-152251" from="132938" to="145224" priority="9" type="highway.primary_bridge" numLanes="2" speed="27.78" shape="4982.68,3179.87,165.50 4982.76,3166.24,164.70 4984.22,3153.70,164.10" disallow="pedestrian bicycle tram rail_urban rail rail_electric ship"/>
    <edge id="-152252" from="141032" to="142325" priority="7" type="highway.secondary_bridge" numLanes="3" speed="27.78" shape="1675.12,3719.24,329.00 1680.49,3727.96,329.80 1680.82,3732.35,330.90">
        <lane index="0" allow="pedestrian" width="1.50"/>
        <lane index="1" disallow="pedestrian tram rail_urban rail rail_electric ship"/>
        <lane index="2" disallow="pedestrian tram rail_urban rail rail_electric ship"/>
    </edge>
    <edge id="-152253" from="143740" to="151351" priority="7" type="highway.secondary_bridge" numLanes="3" speed="27.78" shape="1218.51,3425.77,286.10 1224.65,3422.19,286.80 1230.52,3418.84,286.60">
        <lane index="0" allow="pedestrian" width="1.50"/>
        <lane index="1" disallow="pedestrian tram rail_urban rail rail_electric ship"/>
        <lane index="2" disallow="pedestrian tram rail_urban rail rail_electric ship"/>
    </edge>
    <edge id="-152254" from="136940" to="147844" priority="9" type="highway.primary_bridge" numLanes="2" speed="27.78" shape="4544.72,2585.09,186.40 4540.02,2581.33,186.80 4536.60,2578.48,186.15" disallow="pedestrian bicycle tram rail_urban rail rail_electric ship"/>
    <edge id="-152255#0" from="136130" to="151726" priority="9" type="highway.primary_bridge" numLanes="3" speed="27.78">
        <lane index="0" allow="pedestrian" width="2.00"/>
        <lane index="1" disallow="pedestrian bicycle tram rail_urban rail rail_electric ship"/>
        <lane index="2" disallow="pedestrian bicycle tram rail_urban rail rail_electric ship"/>
    </edge>
    <edge id="-152255#1" from="141396" to="136130" priority="9" type="highway.primary_bridge" numLanes="3" speed="27.78">
        <lane index="0" allow="pedestrian" width="2.00"/>
        <lane index="1" disallow="pedestrian bicycle tram rail_urban rail rail_electric ship"/>
        <lane index="2" disallow="pedestrian bicycle tram rail_urban rail rail_electric ship"/>
    </edge>
    <edge id="-152256" from="142198" to="143206" priority="9" type="highway.primary_bridge" numLanes="3" speed="27.78" shape="155.84,1421.19,363.40 147.76,1423.00,362.90 135.29,1423.83,361.20 127.72,1424.50,361.70 118.04,1425.03,361.60">
        <lane index="0" allow="pedestrian" width="2.00"/>
        <lane index="1" disallow="pedestrian bicycle tram rail_urban rail rail_electric ship"/>
        <lane index="2" disallow="pedestrian bicycle tram rail_urban rail rail_electric ship"/>
    </edge>