<?xml version="1.0" encoding="UTF-8"?>

<!-- generated on Sun Feb 28 19:29:30 2021 by Eclipse SUMO netconvert Version 1.4.0
<configuration xmlns:xsi="http://www.w3.org/2001/XMLSchema-instance" xsi:noNamespaceSchemaLocation="http://sumo.dlr.de/xsd/netconvertConfiguration.xsd">

    <input>
        <sumo-net-file value="most.net.xml"/>
    </input>

    <output>
        <plain-output-prefix value="most"/>
    </output>

    <processing>
        <geometry.min-radius.fix.railways value="false"/>
        <geometry.max-grade.fix value="false"/>
        <offset.disable-normalization value="true"/>
        <lefthand value="false"/>
    </processing>

    <junctions>
        <no-turnarounds value="true"/>
        <junctions.corner-detail value="5"/>
        <junctions.limit-turn-speed value="1"/>
        <rectangular-lane-cut value="false"/>
    </junctions>

    <pedestrian>
        <walkingareas value="true"/>
    </pedestrian>

    <report>
        <aggregate-warnings value="5"/>
    </report>

</configuration>
-->

<nodes version="1.3" xmlns:xsi="http://www.w3.org/2001/XMLSchema-instance" xsi:noNamespaceSchemaLocation="http://sumo.dlr.de/xsd/nodes_file.xsd">
    <location netOffset="-368142.40,-4841896.61" convBoundary="0.00,0.00,9975.22,6362.01" origBoundary="7.36,43.72,7.49,43.78" projParameter="+proj=utm +zone=32 +ellps=WGS84 +datum=WGS84 +units=m +no_defs"/>

    <node id="131241" x="4408.64" y="1373.60" z="21.13" type="priority"/>
    <node id="131254" x="5493.45" y="2444.65" z="7.40" type="priority"/>
    <node id="131288" x="5021.27" y="2827.69" z="140.50" type="priority"/>
    <node id="131295" x="4611.54" y="3815.51" z="430.30" type="right_before_left"/>
    <node id="131296" x="4686.54" y="1290.05" z="62.50" type="dead_end"/>
    <node id="131297" x="4681.28" y="1295.11" z="62.50" type="dead_end"/>
    <node id="131298" x="4670.96" y="1303.81" z="59.20" type="dead_end"/>
    <node id="131299" x="4660.73" y="1317.04" z="59.20" type="dead_end"/>
    <node id="131302" x="4640.20" y="1293.08" z="62.50" type="dead_end"/>
    <node id="131304" x="4661.31" y="1285.15" z="62.50" type="dead_end"/>
    <node id="131306" x="4687.95" y="1305.10" z="59.20" type="dead_end"/>
    <node id="131307" x="4690.39" y="1320.13" z="59.20" type="dead_end"/>
    <node id="131308" x="4689.72" y="1329.83" z="59.20" type="dead_end"/>
    <node id="131310" x="4676.68" y="1325.78" z="59.20" type="dead_end"/>
    <node id="131313" x="4676.55" y="1319.32" z="59.20" type="dead_end"/>
    <node id="131314" x="4675.31" y="1310.94" z="59.20" type="dead_end"/>
    <node id="131315" x="4718.89" y="1290.62" z="63.60" type="priority"/>
    <node id="131316" x="4704.24" y="1275.50" z="62.50" type="dead_end"/>
    <node id="131317" x="4648.98" y="1303.33" z="62.50" type="dead_end"/>
    <node id="131318" x="4661.05" y="1299.41" z="59.20" type="dead_end"/>
    <node id="131319" x="4673.90" y="1330.87" z="59.20" type="dead_end"/>
    <node id="131320" x="4536.57" y="1783.15" z="8.60" type="priority"/>
    <node id="131372" x="5653.78" y="3052.24" z="18.50" type="priority"/>
    <node id="131381" x="5024.85" y="2547.38" z="78.20" type="priority"/>
    <node id="131389" x="5423.73" y="2680.99" z="17.90" type="priority"/>
    <node id="131440" x="1805.61" y="3201.40" z="410.80" type="priority"/>
    <node id="131446" x="6469.49" y="3794.52" z="72.50" type="priority"/>
    <node id="131448" x="4414.20" y="3111.85" z="272.90" type="dead_end"/>
    <node id="131450" x="3092.44" y="3016.25" z="478.35" type="priority"/>
    <node id="131460" x="1389.34" y="3080.62" z="352.80" type="priority"/>
    <node id="131464" x="6199.02" y="3462.51" z="31.30" type="priority"/>
    <node id="131471" x="3184.15" y="2757.45" z="505.70" type="priority"/>
    <node id="131477" x="4410.96" y="1686.93" z="37.40" type="priority"/>
    <node id="131483" x="3842.87" y="2908.41" z="277.70" type="priority"/>
    <node id="131487" x="2102.65" y="3927.09" z="417.80" type="priority"/>
    <node id="131490" x="4968.82" y="2571.55" z="83.90" type="priority"/>
    <node id="131503" x="5738.04" y="3840.21" z="175.40" type="dead_end"/>
    <node id="131514" x="3604.63" y="1078.17" z="148.50" type="dead_end"/>
    <node id="131519" x="3374.70" y="4502.69" z="518.60" type="priority"/>
    <node id="131529" x="7613.65" y="4980.66" z="187.80" type="priority"/>
    <node id="131545" x="4322.16" y="1755.49" z="88.80" type="priority"/>
    <node id="131568" x="2230.38" y="370.71" z="6.40" type="dead_end"/>
    <node id="131590" x="4873.15" y="1972.89" z="2.80" type="priority"/>
    <node id="131615" x="4478.48" y="1317.51" z="6.40" type="priority"/>
    <node id="131617" x="4724.09" y="1305.76" z="64.30" type="priority"/>
    <node id="131621" x="621.82" y="2861.03" z="410.70" type="priority"/>
    <node id="131646" x="3643.68" y="2045.67" z="299.00" type="priority"/>
    <node id="131650" x="4442.33" y="1696.73" z="27.00" type="priority"/>
    <node id="131670" x="7336.61" y="5683.45" z="300.20" type="priority"/>
    <node id="131674" x="4130.47" y="1194.48" z="20.60" type="dead_end"/>
    <node id="131690" x="4823.55" y="2424.59" z="91.00" type="dead_end"/>
    <node id="131700" x="4718.42" y="937.10" z="7.80" type="dead_end"/>
    <node id="131710" x="4584.63" y="2061.32" z="71.30" type="priority"/>
    <node id="131715" x="3960.83" y="3288.24" z="407.70" type="priority"/>
    <node id="131754" x="4763.78" y="1235.01" z="61.70" type="priority"/>
    <node id="131771" x="3465.08" y="1157.92" z="236.10" type="priority"/>
    <node id="131781" x="4631.12" y="2227.75" z="93.80" type="priority"/>
    <node id="131784" x="4332.41" y="1508.39" z="43.40" type="priority"/>
    <node id="131792" x="5369.53" y="3103.97" z="119.90" type="priority"/>
    <node id="131798" x="4850.92" y="2519.36" z="99.90" type="priority"/>
    <node id="131805" x="5998.44" y="3757.56" z="142.10" type="priority"/>
    <node id="131821" x="7184.51" y="5457.91" z="228.60" type="priority"/>
    <node id="131823" x="4205.31" y="2728.00" z="254.90" type="priority"/>
    <node id="131833" x="5129.74" y="2337.31" z="50.50" type="priority"/>
    <node id="131837" x="5345.92" y="2977.95" z="68.90" type="priority"/>
    <node id="131847" x="3274.19" y="3317.75" z="459.50" type="priority"/>
    <node id="131848" x="3872.49" y="783.68" z="33.20" type="right_before_left"/>
    <node id="131862" x="5250.53" y="2814.60" z="85.50" type="priority"/>
    <node id="131877" x="2332.02" y="2032.30" z="365.90" type="priority"/>
    <node id="131882" x="3394.36" y="3406.86" z="427.20" type="priority"/>
    <node id="131912" x="2823.20" y="2746.99" z="428.90" type="priority"/>
    <node id="131914" x="4871.61" y="1219.20" z="58.10" type="priority"/>
    <node id="131917" x="4226.87" y="2193.39" z="120.70" type="priority"/>
    <node id="131919" x="7121.74" y="5797.45" z="289.50" type="priority"/>
    <node id="131936" x="4556.87" y="1610.84" z="11.80" type="priority"/>
    <node id="131942" x="5052.11" y="2627.44" z="81.90" type="priority"/>
    <node id="131949" x="5897.40" y="3883.51" z="152.70" type="priority"/>
    <node id="131953" x="5128.76" y="2358.94" z="50.30" type="right_before_left"/>
    <node id="131966" x="4619.67" y="3062.12" z="265.60" type="dead_end"/>
    <node id="131977" x="4023.59" y="3358.84" z="408.80" type="priority"/>
    <node id="131983" x="5091.97" y="2198.92" z="50.10" type="priority"/>
    <node id="131999" x="643.33" y="2868.54" z="411.20" type="priority"/>
    <node id="132017" x="5417.68" y="3041.24" z="77.75" type="priority"/>
    <node id="132025" x="2730.21" y="4446.29" z="415.10" type="priority"/>
    <node id="132027" x="5235.08" y="2525.17" z="54.50" type="priority"/>
    <node id="132040" x="3478.50" y="3740.65" z="526.20" type="priority"/>
    <node id="132043" x="4469.59" y="1699.54" z="19.80" type="priority"/>
    <node id="132044" x="3730.09" y="3732.26" z="543.20" type="priority"/>
    <node id="132047" x="4574.69" y="1833.23" z="8.60" type="priority"/>
    <node id="132074" x="5785.57" y="3393.77" z="71.70" type="priority"/>
    <node id="132087" x="2348.19" y="448.47" z="57.00" type="priority"/>
    <node id="132089" x="5832.36" y="3190.96" z="19.70" type="priority"/>
    <node id="132099" x="2605.21" y="2900.81" z="462.60" type="priority"/>
    <node id="132106" x="4172.46" y="2199.09" z="126.70" type="priority"/>
    <node id="132107" x="3681.69" y="1819.27" z="312.00" type="dead_end"/>
    <node id="132112" x="4999.88" y="2178.07" z="55.30" type="priority"/>
    <node id="132116" x="2591.18" y="2786.29" z="446.40" type="priority"/>
    <node id="132135" x="4498.40" y="1659.84" z="15.70" type="priority"/>
    <node id="132136" x="3850.94" y="464.93" z="4.10" type="priority"/>
    <node id="132185" x="3841.07" y="1139.00" z="66.30" type="priority"/>
    <node id="132194" x="4599.66" y="3719.91" z="421.30" type="priority"/>
    <node id="132198" x="7816.09" y="4678.83" z="60.90" type="priority"/>
    <node id="132203" x="6161.27" y="3575.02" z="49.90" type="priority"/>
    <node id="132204" x="6421.12" y="3709.95" z="42.20" type="right_before_left"/>
    <node id="132205" x="4968.59" y="2312.18" z="67.60" type="priority"/>
    <node id="132211" x="2233.59" y="2368.49" z="483.00" type="priority"/>
    <node id="132213" x="5132.70" y="2384.71" z="53.20" type="priority"/>
    <node id="132231" x="3498.50" y="3138.70" z="324.70" type="priority"/>
    <node id="132233" x="1878.88" y="3754.65" z="397.30" type="priority"/>
    <node id="132242" x="7287.53" y="4519.35" z="71.20" type="priority"/>
    <node id="132253" x="3707.20" y="2758.52" z="264.70" type="priority"/>
    <node id="132280" x="2674.58" y="535.11" z="91.30" type="priority"/>
    <node id="132291" x="2135.38" y="3127.69" z="436.80" type="priority"/>
    <node id="132321" x="4942.76" y="2636.96" z="101.10" type="priority"/>
    <node id="132340" x="1871.06" y="3894.78" z="399.00" type="priority"/>
    <node id="132362" x="3132.34" y="730.75" z="180.60" type="priority"/>
    <node id="132367" x="2129.58" y="3211.84" z="408.00" type="priority"/>
    <node id="132374" x="4262.04" y="1203.87" z="5.20" type="priority"/>
    <node id="132375" x="4727.06" y="1337.31" z="63.90" type="priority"/>
    <node id="132396" x="5269.41" y="3065.70" z="93.90" type="dead_end"/>
    <node id="132402" x="4131.66" y="2357.72" z="145.80" type="priority"/>
    <node id="132416" x="5340.22" y="4019.39" z="365.50" type="priority"/>
    <node id="132427" x="3248.99" y="3322.55" z="466.70" type="priority"/>
    <node id="132439" x="6223.14" y="3689.86" z="56.50" type="priority"/>
    <node id="132440" x="3615.62" y="976.39" z="112.30" type="priority"/>
    <node id="132443" x="4805.89" y="1712.50" z="2.00" type="priority"/>
    <node id="132460" x="4828.75" y="2040.58" z="23.20" type="priority"/>
    <node id="132461" x="4060.25" y="2802.45" z="230.20" type="priority"/>
    <node id="132508" x="5534.43" y="3842.69" z="235.70" type="priority"/>
    <node id="132513" x="4491.55" y="698.15" z="4.50" type="priority"/>
    <node id="132515" x="4395.99" y="2532.22" z="165.90" type="priority"/>
    <node id="132516" x="3952.35" y="2099.35" z="178.60" type="dead_end"/>
    <node id="132529" x="3695.75" y="2415.56" z="268.00" type="priority"/>
    <node id="132549" x="3134.51" y="671.65" z="154.90" type="priority"/>
    <node id="132550" x="1657.36" y="2996.12" z="451.60" type="priority"/>
    <node id="132552" x="5057.91" y="2434.15" z="62.60" type="priority"/>
    <node id="132561" x="5279.39" y="2763.81" z="76.90" type="priority"/>
    <node id="132582" x="6121.91" y="3325.67" z="6.10" type="priority"/>
    <node id="132617" x="571.36" y="2862.02" z="405.80" type="priority"/>
    <node id="132625" x="4602.65" y="2041.35" z="72.10" type="priority"/>
    <node id="132627" x="3623.86" y="697.92" z="87.20" type="priority"/>
    <node id="132652" x="5092.87" y="3057.52" z="179.50" type="priority"/>
    <node id="132672" x="4371.03" y="2982.88" z="274.50" type="priority"/>
    <node id="132678" x="3799.70" y="2755.58" z="239.70" type="priority"/>
    <node id="132716" x="4542.61" y="3022.40" z="271.60" type="priority"/>
    <node id="132727" x="4317.91" y="3069.67" z="272.40" type="priority"/>
    <node id="132767" x="2319.27" y="1701.35" z="278.90" type="priority"/>
    <node id="132779" x="3256.98" y="3050.11" z="451.10" type="priority"/>
    <node id="132803" x="3175.74" y="3012.24" z="467.50" type="priority"/>
    <node id="132805" x="5209.28" y="2664.64" z="66.60" type="priority"/>
    <node id="132807" x="4887.91" y="2375.44" z="78.10" type="priority"/>
    <node id="132817" x="4673.39" y="1441.99" z="19.60" type="priority"/>
    <node id="132832" x="2351.57" y="358.71" z="52.40" type="priority"/>
    <node id="132833" x="4115.75" y="2116.73" z="136.50" type="priority"/>
    <node id="132840" x="3413.67" y="3707.64" z="499.40" type="priority"/>
    <node id="132844" x="3197.99" y="3050.82" z="460.80" type="priority"/>
    <node id="132866" x="2039.37" y="4193.48" z="406.10" type="priority"/>
    <node id="132897" x="4632.99" y="1650.02" z="6.50" type="priority"/>
    <node id="132900" x="4560.45" y="2402.37" z="144.80" type="priority"/>
    <node id="132903" x="3747.28" y="3254.05" z="396.40" type="priority"/>
    <node id="132904" x="5682.05" y="3815.46" z="169.30" type="priority"/>
    <node id="132916" x="7732.81" y="4667.16" z="54.70" type="priority"/>
    <node id="132919" x="5336.17" y="2720.35" z="64.20" type="priority"/>
    <node id="132923" x="5739.73" y="3360.12" z="71.50" type="priority"/>
    <node id="132937" x="3856.20" y="1133.26" z="65.90" type="priority"/>
    <node id="132938" x="4982.68" y="3179.87" z="165.50" type="priority"/>
    <node id="132954" x="2954.33" y="553.58" z="109.10" type="priority"/>
    <node id="132957" x="3897.44" y="1182.26" z="61.60" type="priority"/>
    <node id="132981" x="6050.33" y="3823.24" z="144.20" type="priority"/>
    <node id="132990" x="3758.11" y="835.68" z="64.70" type="priority"/>
    <node id="132996" x="3533.39" y="228.46" z="21.10" type="priority"/>
    <node id="133003" x="4550.39" y="2589.87" z="186.00" type="priority"/>
    <node id="133016" x="4258.01" y="559.63" z="2.80" type="priority"/>
    <node id="133018" x="6145.70" y="4567.69" z="432.60" type="priority"/>
    <node id="133029" x="2309.69" y="4121.03" z="421.60" type="priority"/>
    <node id="133030" x="5220.64" y="1725.12" z="0.50" type="priority"/>
    <node id="133045" x="4462.02" y="3003.81" z="273.00" type="right_before_left"/>
    <node id="133064" x="4494.51" y="853.39" z="7.30" type="priority"/>
    <node id="133075" x="4698.09" y="3434.43" z="319.00" type="priority"/>
    <node id="133120" x="2303.28" y="2976.94" z="431.90" type="priority"/>
    <node id="133144" x="4159.50" y="1018.61" z="5.00" type="priority"/>
    <node id="133152" x="4656.18" y="1050.44" z="1.40" type="priority"/>
    <node id="133176" x="3148.75" y="2967.91" z="479.55" type="priority"/>
    <node id="133181" x="4705.98" y="1234.24" z="55.10" type="right_before_left"/>
    <node id="133188" x="5298.86" y="2342.75" z="34.30" type="priority"/>
    <node id="133196" x="5833.28" y="3695.01" z="122.30" type="priority"/>
    <node id="133202" x="4456.06" y="2413.93" z="153.10" type="priority"/>
    <node id="133207" x="3754.90" y="2407.70" z="250.80" type="priority"/>
    <node id="133208" x="590.91" y="2869.97" z="410.10" type="priority"/>
    <node id="133211" x="4396.85" y="2232.94" z="89.70" type="priority"/>
    <node id="133213" x="6958.63" y="5644.11" z="296.60" type="priority"/>
    <node id="133232" x="2945.37" y="4030.74" z="492.20" type="right_before_left"/>
    <node id="133236" x="5082.60" y="2662.33" z="84.70" type="priority"/>
    <node id="133240" x="4209.13" y="1061.67" z="16.40" type="priority"/>
    <node id="133246" x="3247.36" y="292.57" z="49.20" type="dead_end"/>
    <node id="133266" x="3593.62" y="2547.45" z="293.40" type="priority"/>
    <node id="133313" x="5383.53" y="2846.30" z="54.10" type="priority"/>
    <node id="133320" x="7405.05" y="5685.72" z="326.10" type="priority"/>
    <node id="133335" x="4586.38" y="1288.65" z="19.10" type="dead_end"/>
    <node id="133337" x="3658.37" y="2113.03" z="281.00" type="priority"/>
    <node id="133346" x="2643.61" y="465.87" z="84.50" type="priority"/>
    <node id="133384" x="4913.66" y="1213.92" z="56.50" type="priority"/>
    <node id="133388" x="7857.81" y="5014.92" z="216.90" type="priority"/>
    <node id="133397" x="1340.57" y="3090.60" z="355.00" type="priority"/>
    <node id="133398" x="5884.51" y="3295.20" z="37.20" type="priority"/>
    <node id="133400" x="5455.44" y="2778.85" z="19.10" type="priority"/>
    <node id="133402" x="3402.97" y="3971.98" z="587.20" type="priority"/>
    <node id="133406" x="6153.18" y="3415.48" z="17.00" type="priority"/>
    <node id="133417" x="4379.71" y="1375.99" z="21.20" type="priority"/>
    <node id="133450" x="5537.44" y="2877.54" z="5.80" type="priority"/>
    <node id="133459" x="5262.85" y="3395.68" z="151.30" type="priority"/>
    <node id="133463" x="4503.34" y="1797.49" z="18.20" type="priority"/>
    <node id="133468" x="4544.24" y="1466.93" z="20.50" type="priority"/>
    <node id="133469" x="4376.47" y="1625.55" z="54.40" type="priority"/>
    <node id="133481" x="5040.93" y="2909.36" z="168.00" type="priority"/>
    <node id="133483" x="3754.01" y="1018.52" z="78.00" type="priority"/>
    <node id="133493" x="3571.59" y="852.00" z="112.40" type="priority"/>
    <node id="133501" x="2278.19" y="3075.25" z="424.10" type="priority"/>
    <node id="133504" x="5078.68" y="3600.69" z="212.40" type="priority"/>
    <node id="133512" x="3697.45" y="1052.85" z="104.70" type="priority"/>
    <node id="133532" x="3714.12" y="2602.78" z="264.50" type="priority"/>
    <node id="133544" x="3762.89" y="1049.93" z="74.80" type="priority"/>
    <node id="133546" x="1562.67" y="2978.07" z="422.70" type="priority"/>
    <node id="133547" x="4143.08" y="1238.98" z="21.40" type="priority"/>
    <node id="133553" x="2051.64" y="1622.94" z="259.00" type="priority"/>
    <node id="133568" x="4127.77" y="900.13" z="4.45" type="priority"/>
    <node id="133579" x="3712.03" y="706.98" z="56.20" type="priority"/>
    <node id="133601" x="4324.73" y="2257.80" z="99.60" type="priority"/>
    <node id="133605" x="3130.92" y="593.12" z="140.30" type="priority"/>
    <node id="133626" x="5287.73" y="2741.43" z="70.60" type="priority"/>
    <node id="133650" x="3530.91" y="3763.08" z="537.60" type="priority"/>
    <node id="133651" x="4410.86" y="1352.39" z="22.60" type="dead_end"/>
    <node id="133674" x="4134.63" y="766.47" z="4.80" type="priority"/>
    <node id="133675" x="7790.71" y="5151.74" z="208.70" type="priority"/>
    <node id="133676" x="4858.09" y="1406.75" z="31.80" type="priority"/>
    <node id="133702" x="4593.21" y="1646.19" z="8.60" type="priority"/>
    <node id="133704" x="4799.53" y="2609.03" z="122.60" type="priority"/>
    <node id="133709" x="5659.96" y="3308.38" z="73.80" type="priority"/>
    <node id="133715" x="2966.31" y="507.67" z="110.20" type="priority"/>
    <node id="133716" x="3348.89" y="3699.27" z="500.40" type="priority"/>
    <node id="133719" x="4179.03" y="2538.41" z="163.65" type="priority"/>
    <node id="133723" x="6988.92" y="4394.00" z="155.40" type="priority"/>
    <node id="133734" x="4778.33" y="2643.11" z="138.00" type="dead_end"/>
    <node id="133735" x="7215.09" y="5533.90" z="240.00" type="priority"/>
    <node id="133750" x="5206.10" y="3069.73" z="108.10" type="priority"/>
    <node id="133771" x="1991.94" y="3394.50" z="409.90" type="priority"/>
    <node id="133784" x="4155.17" y="2146.35" z="133.30" type="priority"/>
    <node id="133789" x="3891.78" y="846.88" z="34.05" type="priority"/>
    <node id="133791" x="4981.38" y="1230.67" z="51.30" type="right_before_left"/>
    <node id="133807" x="5382.76" y="3182.67" z="131.90" type="dead_end"/>
    <node id="133823" x="5462.58" y="2757.86" z="17.10" type="priority"/>
    <node id="133835" x="3225.18" y="454.92" z="108.20" type="dead_end"/>
    <node id="133855" x="2475.96" y="242.23" z="26.20" type="priority"/>
    <node id="133862" x="4572.82" y="863.04" z="7.20" type="priority"/>
    <node id="133865" x="4522.54" y="1481.90" z="21.10" type="priority"/>
    <node id="133873" x="5730.08" y="3877.72" z="190.90" type="dead_end"/>
    <node id="133879" x="2914.60" y="2892.19" z="463.00" type="priority"/>
    <node id="133881" x="5101.59" y="2358.98" z="52.00" type="priority"/>
    <node id="133892" x="4126.50" y="1245.03" z="23.55" type="priority"/>
    <node id="133905" x="4956.55" y="2013.72" z="22.90" type="priority"/>
    <node id="133920" x="4332.00" y="2763.78" z="240.50" type="priority"/>
    <node id="133926" x="3588.32" y="3469.26" z="448.00" type="priority"/>
    <node id="133929" x="4526.17" y="3657.07" z="384.40" type="priority"/>
    <node id="133933" x="6053.27" y="3761.08" z="118.80" type="priority"/>
    <node id="133934" x="4803.51" y="1286.16" z="64.20" type="right_before_left"/>
    <node id="133938" x="6124.87" y="3551.65" z="53.65" type="priority"/>
    <node id="133965" x="4198.77" y="2974.28" z="301.10" type="priority"/>
    <node id="133978" x="3211.40" y="831.57" z="234.60" type="priority"/>
    <node id="133983" x="7438.60" y="4843.06" z="77.00" type="priority"/>
    <node id="133988" x="4624.85" y="1525.72" z="13.30" type="priority"/>
    <node id="133991" x="4784.43" y="2648.26" z="138.60" type="dead_end"/>
    <node id="133998" x="3979.45" y="2287.87" z="187.10" type="priority"/>
    <node id="134011" x="4687.62" y="2318.47" z="98.20" type="priority"/>
    <node id="134018" x="4629.68" y="840.73" z="7.20" type="priority"/>
    <node id="134031" x="4853.00" y="1447.13" z="3.30" type="priority"/>
    <node id="134034" x="6615.53" y="4232.10" z="298.20" type="priority"/>
    <node id="134062" x="5174.95" y="2552.04" z="61.50" type="priority"/>
    <node id="134065" x="5248.04" y="2206.51" z="41.60" type="priority"/>
    <node id="134115" x="3483.06" y="2513.25" z="317.30" type="priority"/>
    <node id="134136" x="5766.68" y="3602.49" z="139.20" type="dead_end"/>
    <node id="134140" x="5201.56" y="2367.40" z="43.90" type="priority"/>
    <node id="134146" x="3487.69" y="3414.04" z="414.10" type="priority"/>
    <node id="134149" x="4140.15" y="1002.62" z="5.23" type="priority"/>
    <node id="134153" x="1283.58" y="2499.04" z="456.60" type="priority"/>
    <node id="134173" x="5229.30" y="3086.86" z="99.20" type="dead_end"/>
    <node id="134185" x="6201.51" y="3679.55" z="61.30" type="priority"/>
    <node id="134201" x="2233.47" y="4103.20" z="400.30" type="priority"/>
    <node id="134207" x="5511.47" y="3148.04" z="66.50" type="priority"/>
    <node id="134213" x="3141.75" y="3857.50" z="532.10" type="priority"/>
    <node id="134221" x="2295.32" y="2657.56" z="493.10" type="priority"/>
    <node id="134254" x="5719.52" y="3388.60" z="84.50" type="dead_end"/>
    <node id="134263" x="5610.93" y="3509.54" z="166.40" type="priority"/>
    <node id="134293" x="4613.92" y="1461.04" z="19.20" type="priority"/>
    <node id="134295" x="3665.12" y="1010.67" z="108.40" type="priority"/>
    <node id="134310" x="3861.39" y="1502.74" z="214.50" type="priority"/>
    <node id="134311" x="3362.79" y="326.89" z="64.60" type="priority"/>
    <node id="134334" x="5817.35" y="3491.22" z="102.50" type="priority"/>
    <node id="134355" x="1984.79" y="3622.08" z="417.40" type="priority"/>
    <node id="134357" x="9914.38" y="5042.37" type="dead_end"/>
    <node id="134359" x="3102.87" y="3048.35" z="476.80" type="priority"/>
    <node id="134376" x="5086.53" y="3487.17" z="218.60" type="priority"/>
    <node id="134403" x="4048.92" y="1587.77" z="137.80" type="priority"/>
    <node id="134432" x="4717.99" y="1803.31" z="4.20" type="priority"/>
    <node id="134436" x="4141.20" y="2995.24" z="322.10" type="priority"/>
    <node id="134446" x="3607.11" y="3468.55" z="451.30" type="priority"/>
    <node id="134449" x="3330.98" y="670.21" z="177.20" type="priority"/>
    <node id="134459" x="5226.82" y="2751.33" z="83.70" type="priority"/>
    <node id="134494" x="3291.19" y="474.33" z="106.90" type="priority"/>
    <node id="134495" x="4844.42" y="2650.17" z="123.10" type="priority"/>
    <node id="134496" x="4384.23" y="1691.57" z="42.60" type="priority"/>
    <node id="134507" x="5206.77" y="3047.25" z="106.80" type="priority"/>
    <node id="134522" x="4201.89" y="1667.58" z="105.70" type="priority"/>
    <node id="134542" x="6749.87" y="3891.93" z="115.00" type="priority"/>
    <node id="134549" x="6700.88" y="4470.80" z="317.80" type="priority"/>
    <node id="134588" x="4100.06" y="3094.67" z="348.10" type="priority"/>
    <node id="134607" x="5619.34" y="3162.69" z="45.70" type="priority"/>
    <node id="134620" x="3671.90" y="3234.32" z="390.70" type="priority"/>
    <node id="134626" x="3952.91" y="1636.09" z="175.30" type="priority"/>
    <node id="134629" x="5690.09" y="3042.58" z="7.00" type="dead_end"/>
    <node id="134630" x="4904.28" y="1175.93" z="51.50" type="dead_end"/>
    <node id="134636" x="3692.29" y="466.72" z="52.90" type="priority"/>
    <node id="134637" x="2904.58" y="3989.60" z="495.20" type="right_before_left"/>
    <node id="134645" x="4727.69" y="1695.02" z="3.80" type="priority"/>
    <node id="134670" x="2350.37" y="2884.58" z="440.70" type="priority"/>
    <node id="134675" x="5091.81" y="2243.53" z="50.60" type="priority"/>
    <node id="134685" x="7269.12" y="4674.48" z="142.60" type="priority"/>
    <node id="134706" x="5177.16" y="2329.43" z="45.60" type="right_before_left"/>
    <node id="134725" x="4805.82" y="1983.42" z="7.60" type="priority"/>
    <node id="134730" x="3681.63" y="1104.81" z="119.00" type="priority"/>
    <node id="134747" x="6583.71" y="4225.31" z="302.60" type="priority"/>
    <node id="134754" x="7094.71" y="4274.59" z="68.50" type="priority"/>
    <node id="134758" x="3352.68" y="3632.33" z="485.60" type="priority"/>
    <node id="134768" x="5775.95" y="4273.62" z="341.30" type="priority"/>
    <node id="134786" x="4218.04" y="1775.95" z="125.50" type="priority"/>
    <node id="134791" x="7054.93" y="5604.89" z="293.00" type="priority"/>
    <node id="134797" x="5259.52" y="2626.28" z="58.10" type="priority"/>
    <node id="134810" x="4797.63" y="1197.38" z="59.90" type="priority"/>
    <node id="134811" x="7066.98" y="4227.14" z="67.90" type="priority"/>
    <node id="134829" x="5042.62" y="2719.87" z="103.40" type="priority"/>
    <node id="134840" x="5724.64" y="3776.66" z="151.20" type="priority"/>
    <node id="134852" x="6925.60" y="3847.94" z="23.70" type="priority"/>
    <node id="134853" x="3967.21" y="867.67" z="7.80" type="right_before_left"/>
    <node id="134856" x="4794.86" y="1943.08" z="2.80" type="priority"/>
    <node id="134869" x="5638.23" y="3258.73" z="68.10" type="priority"/>
    <node id="134872" x="9832.86" y="5109.03" z="9.70" type="traffic_light" tl="134872"/>
    <node id="134873" x="4011.47" y="2175.09" z="162.50" type="priority"/>
    <node id="134893" x="4213.71" y="1215.61" z="6.40" type="priority"/>
    <node id="134897" x="5239.91" y="3306.50" z="166.50" type="priority"/>
    <node id="134924" x="5379.11" y="2244.89" z="34.10" type="priority"/>
    <node id="134927" x="7449.10" y="4842.77" z="77.00" type="priority"/>
    <node id="134928" x="3149.60" y="2811.01" z="494.00" type="priority"/>
    <node id="134939" x="2792.35" y="741.77" z="149.10" type="priority"/>
    <node id="134942" x="2368.90" y="2531.03" z="436.00" type="priority"/>
    <node id="134951" x="6296.35" y="3647.66" z="35.40" type="priority"/>
    <node id="134952" x="4503.50" y="693.85" z="4.85" type="priority"/>
    <node id="134965" x="3643.02" y="327.39" z="43.80" type="priority"/>
    <node id="134990" x="4621.15" y="2255.07" z="100.30" type="priority"/>
    <node id="134996" x="5014.99" y="1277.77" z="55.20" type="priority"/>
    <node id="135007" x="4364.06" y="3167.45" z="280.40" type="priority"/>
    <node id="135016" x="5173.45" y="2788.75" z="95.00" type="priority"/>
    <node id="135023" x="5723.76" y="3287.74" z="49.90" type="priority"/>
    <node id="135027" x="3064.96" y="2880.48" z="477.20" type="priority"/>
    <node id="135038" x="7517.67" y="6018.28" z="452.60" type="priority"/>
    <node id="135046" x="4352.81" y="2885.91" z="273.80" type="priority"/>
    <node id="135049" x="4306.20" y="2195.87" z="107.30" type="priority"/>
    <node id="135054" x="6057.05" y="3534.04" z="62.37" type="priority"/>
    <node id="135057" x="3489.81" y="561.53" z="113.50" type="right_before_left"/>
    <node id="135092" x="3282.09" y="861.24" z="231.80" type="priority"/>
    <node id="135105" x="3916.63" y="904.05" z="31.50" type="priority"/>
    <node id="135108" x="1571.31" y="2998.28" z="424.20" type="priority"/>
    <node id="135111" x="3875.59" y="1361.36" z="134.10" type="dead_end"/>
    <node id="135113" x="4790.90" y="2359.21" z="90.20" type="priority"/>
    <node id="135129" x="3946.59" y="2536.03" z="198.90" type="priority"/>
    <node id="135144" x="3882.27" y="1600.50" z="212.10" type="priority"/>
    <node id="135145" x="4782.82" y="2368.21" z="91.70" type="priority"/>
    <node id="135152" x="3264.73" y="645.02" z="165.10" type="priority"/>
    <node id="135157" x="1986.57" y="1670.73" z="268.20" type="priority"/>
    <node id="135167" x="1463.73" y="741.49" z="74.20" type="priority"/>
    <node id="135173" x="5172.49" y="1991.24" z="1.90" type="priority"/>
    <node id="135191" x="4235.99" y="1378.74" z="76.60" type="priority"/>
    <node id="135208" x="4883.97" y="1198.07" z="57.50" type="priority"/>
    <node id="135211" x="7468.80" y="4957.97" z="84.70" type="priority"/>
    <node id="135245" x="2452.80" y="2585.58" z="424.20" type="priority"/>