<configuration>
    <input>
        <net-file value="traci.net.xml"/>
        <route-files value="traci.rou.xml"/>
    </input>
    <time>
        <begin value="0"/>
        <end value="604800"/>
    </time>
    <output>
        <collision-output value="collisions.xml"/>
    </output>
    <processing>
        <collision.check-junctions value="true"/>
    </processing>
</configuration>